27
 energy: -38.492574806137 gnorm: 0.000212541597 xtb: 6.4.1 (1a32961)
C        -0.22761051591751   -1.03660504271484   -0.82885915493123
C        -0.95321483712897    0.14232728210939   -0.85206326249036
C        -0.56444762873630    1.18622737802958   -0.01458600811280
C        -1.42029130477311    2.42128288101220    0.01140591607014
O        -2.64345205393031    2.27479519878209    0.00301052508981
N        -0.83892499668731    3.62853576586627    0.02780451388748
C         0.59256139526809    3.85229998676949   -0.06277588188949
C         1.07283493864485    3.84636499983008   -1.51355695679930
C        -1.68583805988780    4.81059997013114    0.03939802700224
C        -1.84732060824824    5.37288657031419    1.44918062755953
N         0.46206381764337    1.08108660971547    0.82321483949387
C         1.14149125306486   -0.05303849365819    0.84925377555150
C         0.84607321751432   -1.14145333593924    0.04267809427320
H        -0.50011195622562   -1.85979990723600   -1.47250467713754
H        -1.80929032226370    0.27127322386541   -1.49590838536424
H         1.10836987810621    3.08046695051297    0.50774860328091
H         0.80272114268196    4.82088680909304    0.39299433563389
H         0.88678652656810    2.87543211276128   -1.96750089914047
H         2.13950796357952    4.04892518670034   -1.54869906660379
H         0.55429629659526    4.60349378483992   -2.09737426425295
H        -2.66358819841385    4.52103991154300   -0.35271237874380
H        -1.24286059583759    5.55886361283543   -0.62157517325725
H        -2.30971760832202    4.62815488872143    2.09213930656864
H        -2.48173688931531    6.25452127279463    1.42204156279065
H        -0.88359347017580    5.64692257045841    1.87166935267799
H         1.96189482693392   -0.08030873978194    1.55438966925431
H         1.43536778926274   -2.04271144735667    0.09874695959023
