97
 energy: -142.076495896308 gnorm: 0.000273534424 xtb: 6.4.1 (1a32961)
N        -0.91709691267615   -2.01276289449078   -0.37759960956902
C        -2.15923939305082   -1.52998755226645   -0.54762012403019
C        -3.05112369933369   -2.13979517909989   -1.43700700916503
C        -2.65520971121106   -3.24837940867942   -2.15365310154619
C        -1.36438876963709   -3.73403078923403   -1.97040718799486
C        -0.54320374177842   -3.08121769559497   -1.07471361324065
H         0.46618388403325   -3.42419163921083   -0.89460050276071
H        -1.01124567772268   -4.59969452802487   -2.50684313565195
H        -4.05003105275085   -1.75705495532886   -1.56088795414475
C        -2.51435421130496   -0.35821761548946    0.24643524450231
N        -1.57724697277605    0.09951623935715    1.10046312402458
C        -1.86906540184369    1.14692949260918    1.86839199086706
C        -3.08270372990963    1.80287384035441    1.83378493158514
C        -4.05137476452801    1.35713892035534    0.94082298723254
C        -3.75876883796362    0.27164882873323    0.14269831567263
H        -4.49711997498219   -0.08802525591802   -0.55351394476775
H        -3.26729270297089    2.63993902759406    2.48741816427967
H        -1.07741118733939    1.46924682146608    2.52784714618004
Ir        0.42150000000007   -0.81650000000001    0.91330000000010
H         0.87260000000000   -2.23030000000010    1.54050000000003
B         0.44283991655599    0.59841999463907   -0.61380988916002
O        -0.13564751624664    0.29362147491809   -1.82886945084271
C        -0.21901249509093    1.47105301454215   -2.64067492902320
C         0.11967694861331    1.11962066443428   -4.08705722400934
H         1.06323659036509    0.58688100072629   -4.14078492210196
H         0.17292550633135    2.02269622436547   -4.68942858073153
H        -0.65810398933216    0.47443175473693   -4.48837268088465
C        -1.67069262938337    1.96481123304864   -2.56594639830968
H        -1.82234612828175    2.83451098081949   -3.19817897217958
H        -2.32738307061156    1.16372506201749   -2.89966221447502
H        -1.93234455870018    2.20717615111523   -1.53771488548694
C         0.78965774439043    2.44041943315857   -1.94005282740453
O         0.85914403476364    1.90832978274100   -0.60824980023600
C         2.20289848833934    2.34066903076600   -2.52660076430552
H         2.53663331596187    1.30725239200114   -2.47258805369148
H         2.23421671816844    2.70162830393709   -3.55040109239525
H         2.87652680596497    2.94001973809406   -1.91873693937485
C         0.35530487608391    3.90378113171122   -1.89541344762900
H        -0.55989340864207    4.02703095467953   -1.32477820785034
H         1.13456053505654    4.49177743015145   -1.41669138757063
H         0.20593105864795    4.27699128851420   -2.90528395624684
B         1.58399361408267    0.61543783610133    1.90366122382914
O         2.95437264621855    0.71830025260983    1.93146473491579
C         3.33998242521003    1.98909899916697    2.47855153215992
C         4.58624285444843    1.82487403267139    3.34642793494994
H         4.44680704373160    1.04728461080694    4.08981576409102
H         5.42548000354733    1.54352668375107    2.71561035113889
H         4.82101566239676    2.76324173896291    3.84134590467357
C         3.65929704270041    2.89630749007317    1.28496763181032
H         3.94999051371729    3.89195811781573    1.60641136677242
H         4.47654034963005    2.45276875184037    0.72087552096408
H         2.78998139449770    2.94047734638091    0.63390921756868
C         2.05142187043893    2.43524433913387    3.24930330270082
O         1.02653136182967    1.63959962264473    2.63524299543950
C         1.69528160267686    3.91339668986600    3.10550642672001
H         1.48224322025956    4.15621793733393    2.06999106439909
H         0.80619495109300    4.12442399013941    3.69462749456269
H         2.51102199814011    4.53260915580104    3.46859897148207
C         2.08127286599499    2.06428050559613    4.73734278209899
H         2.28009180424944    1.00241633304043    4.85267718838060
H         2.83026899421160    2.64298979883098    5.26879799950303
H         1.10439807042477    2.27192314833099    5.16743517871415
B         2.27819999999994   -1.33090000000001    0.17409999999994
O         3.07108993511584   -2.34442859980538    0.67118665373532
C         4.36781034117756   -2.31027157623815    0.05861146601736
C         5.30959504830995   -1.65533822646402    1.07488815299623
H         4.90628209215023   -0.68587436528099    1.35359750953307
H         5.33846002094109   -2.27663598284713    1.96654216704715
H         6.31576237129723   -1.55561854038442    0.68018802622891
C         4.83604148812959   -3.73771662004032   -0.22235115916789
H         4.94737494954476   -4.26193674651930    0.72313178887201
H         5.79510589402389   -3.72260680551312   -0.73219023302333
H         4.11421856924173   -4.28001644606882   -0.82383297970581
C         4.12608204953539   -1.42613855641504   -1.21510214452302
O         2.89366741065236   -0.75345203733190   -0.90966115377275
C         5.21025225917110   -0.38467614621500   -1.48626979283089
H         6.17383914433978   -0.86861822292999   -1.61849353071981
H         4.96284107489677    0.15929660203503   -2.39434391913335
H         5.26323750659099    0.32651454329849   -0.66944299782531
C         3.88872339664135   -2.24816456609971   -2.48888327299582
H         3.08448344008157   -2.96170519465817   -2.33147377677681
H         3.58497059682547   -1.57362784501605   -3.28578544637205
H         4.79179875457526   -2.76910288883550   -2.79188256051769
H        -3.33484830634461   -3.72904284106080   -2.84063734794244
H        -5.01138345994038    1.84590366717494    0.87337824019116
C         0.23590000000115   -1.68140000000007    2.96030000000162
C        -1.00105440322726   -2.03160559913727    3.44899214945838
C         1.18840958505583   -1.59247506571842    4.00578154203495
S        -1.00911851904080   -2.16971922303395    5.21085514756257
C        -2.16798712172710   -2.31477868633657    2.76128712453963
C         0.68883748147042   -1.80538586338733    5.25412073550682
H         2.22410155076509   -1.37924317908413    3.80999698827260
N        -3.14566914830494   -2.57792177141416    2.20714015372244
C         1.40802384677643   -1.75778071388387    6.55523139310580
H         2.48031757066736   -1.71845623775948    6.38216051771888
H         1.17309887100338   -2.63545690631270    7.15457692215501
H         1.11034207083637   -0.87616330361400    7.12280439693916
