125
 energy: -176.396107411733 gnorm: 0.000291106997 xtb: 6.4.1 (1a32961)
N        -0.96510000000008   -2.11530000000003   -0.24089999999999
C        -2.24699999999994   -1.69840000000011   -0.36219999999998
C        -3.14040000000010   -2.36819999999999   -1.21199999999988
C        -2.70220000000004   -3.47559999999981   -1.93049999999971
C        -1.37780000000002   -3.89879999999999   -1.78760000000004
C        -0.54289999999992   -3.18670000000000   -0.93509999999996
H         0.49810000000002   -3.45629999999999   -0.78939999999999
H        -0.99570000000000   -4.76030000000000   -2.32770000000001
H        -4.16499999999997   -2.02890000000001   -1.31830000000003
C        -2.62129999999959   -0.50950000000012    0.44099999999987
N        -1.62599999999999    0.07330000000011    1.16020000000002
C        -1.89680000000004    1.15240000000013    1.91690000000009
C        -3.17229999999994    1.70330000000000    1.99649999999997
C        -4.20510000000002    1.11740000000003    1.26270000000003
C        -3.92610000000023    0.00250000000006    0.47819999999995
H        -4.71960000000012   -0.46420000000007   -0.09519999999992
H        -3.34630000000001    2.57510000000000    2.62070000000002
H        -1.04449999999999    1.57419999999999    2.43690000000002
Ir        0.42149999999999   -0.81650000000000    0.91330000000000
H         0.87260000000000   -2.23030000000000    1.54050000000000
B         0.50670000000000    0.41559999999999   -0.81539999999999
O         0.19499999999998   -0.04699999999998   -2.09149999999998
C         0.00650000000001    1.10039999999996   -2.95430000000000
C         0.49020000000001    0.74740000000002   -4.35780000000001
H         1.51609999999999    0.37380000000000   -4.33700000000000
H         0.44730000000001    1.62239999999999   -5.01669999999999
H        -0.14739999999996   -0.03389999999998   -4.78430000000001
C        -1.50119999999997    1.39560000000007   -2.96670000000000
H        -1.75369999999998    2.21459999999994   -3.64849999999999
H        -2.03199999999999    0.49449999999997   -3.28930000000002
H        -1.85169999999998    1.65210000000001   -1.96220000000003
C         0.84229999999994    2.20670000000000   -2.22039999999999
O         0.75200000000001    1.78260000000002   -0.83690000000001
C         2.32929999999990    2.18619999999999   -2.59900000000001
H         2.74130000000003    1.18500000000001   -2.45750000000000
H         2.48869999999999    2.51300000000002   -3.63180000000000
H         2.87200000000000    2.86270000000000   -1.93199999999999
C         0.28439999999997    3.62289999999997   -2.33660000000000
H        -0.72649999999997    3.69040000000000   -1.92910000000001
H         0.92130000000000    4.31480000000000   -1.77609999999999
H         0.26429999999999    3.94810000000001   -3.38319999999999
B         1.56300000000000    0.60959999999999    1.84839999999999
O         2.92780000000001    0.55230000000002    2.15019999999999
C         3.36330000000005    1.88660000000003    2.50260000000002
C         4.53140000000002    1.78590000000000    3.47739999999960
H         4.27910000000000    1.16090000000002    4.33690000000003
H         5.39390000000008    1.33790000000001    2.97340000000005
H         4.82389999999998    2.77870000000002    3.83820000000003
C         3.79700000000000    2.56850000000000    1.19669999999985
H         4.20020000000002    3.57089999999998    1.37680000000000
H         4.56740000000000    1.95559999999998    0.72110000000001
H         2.95239999999997    2.63260000000000    0.50540000000006
C         2.05040000000003    2.50090000000001    3.09319999999998
O         1.03750000000000    1.81620000000001    2.31910000000000
C         1.89100000000002    4.00450000000000    2.88650000000000
H         1.87290000000001    4.25440000000000    1.82410000000000
H         0.94940000000004    4.34260000000000    3.33170000000003
H         2.71080000000000    4.55150000000002    3.36630000000000
C         1.82470000000002    2.13199999999999    4.56520000000004
H         1.92610000000000    1.05329999999999    4.71320000000001
H         2.52610000000001    2.65280000000001    5.22540000000001
H         0.80630000000002    2.41579999999998    4.84900000000003
B         2.27820000000000   -1.33090000000002    0.17410000000001
O         2.89460000000001   -2.57740000000002    0.38449999999999
C         4.26929999999993   -2.48200000000005   -0.07210000000000
C         5.10899999999997   -2.05379999999998    1.14009999999976
H         4.76349999999999   -1.08739999999998    1.51749999999999
H         4.98050000000000   -2.79469999999997    1.93590000000001
H         6.17419999999997   -1.99290000000000    0.89300000000002
C         4.71950000000004   -3.84659999999995   -0.58470000000002
H         4.75280000000000   -4.56130000000002    0.24419999999996
H         5.72330000000007   -3.78369999999999   -1.02010000000001
H         4.03499999999996   -4.23599999999999   -1.34170000000003
C         4.16439999999999   -1.36220000000000   -1.16299999999999
O         3.08520000000004   -0.55029999999998   -0.65400000000002
C         5.40720000000001   -0.48870000000001   -1.31550000000005
H         6.27319999999999   -1.09010000000001   -1.61529999999996
H         5.23300000000003    0.26929999999998   -2.08589999999996
H         5.64270000000000    0.02650000000001   -0.38239999999999
C         3.71800000000004   -1.89829999999999   -2.53110000000001
H         2.82530000000011   -2.52159999999995   -2.42739999999998
H         3.46090000000001   -1.05249999999997   -3.17549999999998
H         4.50570000000003   -2.48290000000004   -3.01789999999998
H        -3.38499999999989   -4.00129999999998   -2.59310000000003
H        -5.21400000000002    1.52080000000002    1.29959999999996
C         0.23590000000014   -1.68139999999999    2.96030000000000
C        -1.01105371354208   -2.11944363746902    3.39042974613992
C         1.28895961937123   -1.66085284776377    3.88034874428380
C        -1.20066369188922   -2.48545065631597    4.72889177168894
H        -1.84689769276777   -2.20985287184556    2.70815785445409
C         1.14101284306293   -2.02169891247829    5.20922602730176
H         2.27158360347512   -1.37315717902178    3.52947992132068
C        -0.11573054948539   -2.45167879799225    5.62969020764821
C        -2.32270393809081   -3.01032617307313    5.45024601214528
H         1.98137398608491   -2.01321986465228    5.88224466478704
N        -0.55063946193483   -2.91698196483647    6.85200123618962
C        -1.87280609755688   -3.28391884205213    6.75608002136655
C        -3.64688796603935   -3.29484617412347    5.10872579117593
O         0.19751423298579   -3.22942706845742    7.98619671765875
C        -2.70924132435366   -3.84248500490100    7.71847036297366
C        -4.49287389173573   -3.85339312336791    6.05811323451894
H        -4.00498088759850   -3.08844693806327    4.10771162855657
Si        1.59086961261462   -2.60934725343386    8.65827087264924
C        -4.01548272667081   -4.12015801173702    7.34547144537164
H        -2.34294571659721   -4.05834094054008    8.71254048790019
C        -5.93512035215312   -4.14040706345192    5.72771800220050
C         3.15252237538637   -3.34382762653685    7.84455280057355
C         1.60946777898439   -0.71833014522116    8.64846817029655
C         1.39422841729997   -3.32101657739672   10.40948990021388
H        -4.68733825527625   -4.56217711406005    8.07170784759541
C        -6.84194684901607   -3.01596862878592    6.21925794796425
H        -6.23895194416152   -5.07994362789397    6.19871540659300
H        -6.04909329345858   -4.25132028081548    4.64522738944179
H         2.89533683198309   -4.11279691528060    7.11915899478501
H         3.79419365170815   -3.80857687761214    8.59223193473428
H         3.75717286040620   -2.59710191423380    7.33124014157078
H         1.57665857510514   -0.31797893028020    7.63709398752981
H         2.50345073966696   -0.32354311045530    9.12832590974806
H         0.74819063011176   -0.31510656841299    9.18145975859473
H         1.28216347863414   -4.40291992240565   10.38305340740617
H         0.52586444056035   -2.91162114881944   10.92059470832586
H         2.27173124944531   -3.09333465169397   11.01323100224563
H        -6.75073130636041   -2.89795655093048    7.29904982027611
H        -7.88468017963818   -3.23110448276829    5.97976143537124
H        -6.56354686443030   -2.07173727468274    5.74911279200209
