103
 energy: -147.340786506938 gnorm: 0.000236926648 xtb: 6.4.1 (1a32961)
N        -0.94685316470814   -1.92287759957391   -0.48964493098652
C        -2.14717767870930   -1.33365042444228   -0.66120720391007
C        -2.93839601067492   -1.61803280326024   -1.77883820136148
C        -2.49467852199226   -2.52261095268822   -2.71912952820809
C        -1.26095211830562   -3.13724889538081   -2.52221550124918
C        -0.53248303829876   -2.79943340038156   -1.40110753041505
H         0.43189953435234   -3.24802069536922   -1.20772821950704
H        -0.87800236071016   -3.85559778648762   -3.22875839697299
H        -3.88239328587053   -1.11809864050763   -1.92229672880862
C        -2.54837698777853   -0.38095135179770    0.36790951138285
N        -1.59627125410639   -0.01146706428243    1.24997210029806
C        -1.91765736475822    0.84343667200100    2.21727404630387
C        -3.17889521912242    1.38471418768247    2.36573574753101
C        -4.17185189860433    1.01489327696840    1.46248775287673
C        -3.85043460618195    0.12393482337263    0.46039961735870
H        -4.60960148723751   -0.19347718635652   -0.23538934237293
H        -3.38464137485660    2.07117188775563    3.17089456507019
H        -1.11577712627696    1.10163837407890    2.89176646931335
Ir        0.42150000000012   -0.81650000000010    0.91329999999996
H         0.87259999999998   -2.23029999999984    1.54050000000013
B         0.44197892565854    0.64146472589260   -0.58980639957221
O        -0.33272176904864    0.46411596048448   -1.72536737182361
C        -0.38322547087943    1.67760126554046   -2.48045832845234
C        -0.33256527328887    1.35743550865132   -3.97213545280686
H         0.51924930895005    0.72691024340057   -4.20397977441162
H        -0.27524170703540    2.27634018610377   -4.54990477295709
H        -1.23727748817512    0.82155694662048   -4.25000479721962
C        -1.72484686801383    2.35047341572912   -2.15446503116601
H        -1.85598998541691    3.26446007808913   -2.72597921959871
H        -2.52862137639695    1.65933596691648   -2.40072471934352
H        -1.78265765090447    2.56960426951755   -1.09017421336704
C         0.84320148768989    2.47310548508881   -1.92613094544927
O         1.03628772912698    1.88118860529506   -0.63472586078166
C         2.12335363286172    2.21243836980747   -2.72928149752495
H         2.31302208859290    1.14213748297705   -2.75910754909125
H         2.05034720192229    2.61695521143426   -3.73477553634162
H         2.95962264329473    2.68294005039590   -2.21712175559128
C         0.62526783281291    3.97848905243534   -1.78455629710537
H        -0.15565002065655    4.19644611331755   -1.06241733710383
H         1.54635754805413    4.44154182815775   -1.43830139711730
H         0.35940741984921    4.40819755736633   -2.74709272915905
B         1.56503132944613    0.66583666309294    1.83172562121080
O         2.92940968739538    0.76910967905495    1.91257899330380
C         3.30213605001411    2.06592369182499    2.40013929159084
C         4.45272462504743    1.92534839817657    3.39661629000067
H         4.20068271198257    1.23005099065453    4.19029739828657
H         5.32623848375783    1.53935460822360    2.87718589810292
H         4.69861239958626    2.89356123207444    3.82426259790171
C         3.77815095452243    2.86727136480819    1.18245806896288
H         4.04888707913765    3.88348781290105    1.45268081730214
H         4.64911322720906    2.37123964865824    0.75975421262232
H         2.99279585314365    2.86511128626200    0.43160467632715
C         1.96112788402884    2.61051235698583    3.00934544440653
O         0.97102517206604    1.75148409218899    2.42903546796945
C         1.63504540201947    4.05826705635571    2.64410166363374
H         1.51826417128080    4.16055349350200    1.57050397208014
H         0.69762543989871    4.34054662156600    3.11709236622527
H         2.41935003324549    4.72277733090911    2.99608327516463
C         1.87145003875730    2.44300646660206    4.53167491292065
H         2.01859314702135    1.40155515336270    4.80354722826601
H         2.60280584666998    3.06543858854039    5.03780949186537
H         0.87560956815229    2.73408103707654    4.85768781582088
B         2.27819999999906   -1.33090000000007    0.17409999999984
O         3.14362817651903   -2.23884674249550    0.74443607191580
C         4.40888686114075   -2.21537257522334    0.07304955985424
C         5.36044054188275   -1.40453015319074    0.95922131593888
H         4.91810590690174   -0.43130028627124    1.15074786805046
H         5.46156955284969   -1.91661196516217    1.91276811163006
H         6.34104617067798   -1.30165185912651    0.50474090497032
C         4.93911526841300   -3.64292466109125   -0.06342503734956
H         5.12013039149083   -4.04353464838409    0.93039945845918
H         5.87219668325542   -3.64396191333928   -0.61997560621425
H         4.22020881905002   -4.28700666583510   -0.55854135545689
C         4.06982023242834   -1.49992344958957   -1.28264830018498
O         2.81528694690729   -0.86028181986613   -1.00400063090110
C         5.08256596573225   -0.44327600451841   -1.72063208107894
H         6.06621949215799   -0.88850596346488   -1.84186332450367
H         4.76776520412058   -0.02145553390401   -2.67186148859198
H         5.12807250224479    0.35987967012336   -0.99340289951211
C         3.83322000660216   -2.47804019490845   -2.44165405818176
H         3.08380551306408   -3.21430071862397   -2.16468762307398
H         3.45713102326746   -1.92083921160046   -3.29631040459699
H         4.75430281840754   -2.97878930968240   -2.72372696494291
H        -3.08989445659970   -2.74483850552065   -3.59173588539256
H        -5.17288344087489    1.40971402650509    1.54774802420760
C         0.23590000000031   -1.68140000000162    2.96029999999654
N        -0.92786644692019   -2.25029477545756    3.42655066434935
C         1.02388176502766   -1.34474392168350    4.03424832237453
C        -0.92378238406903   -2.22206791153910    4.79469342520702
C        -1.96645705122270   -2.86687177359560    2.65122524625846
C         0.30433778791268   -1.64837338384712    5.21769153313198
H         2.01038915042122   -0.93224696069821    3.97113098884235
C        -1.88153799217571   -2.64343571298282    5.70780416433410
H        -2.17610815114784   -3.86532544115987    3.04223410719596
H        -1.63995022651525   -2.95243037007540    1.61745949744983
H        -2.88849988755559   -2.27866344099208    2.68814007895137
C         0.55849481133803   -1.50832099243020    6.58309860610966
C        -1.60183774046597   -2.49032179764124    7.05100802086813
H        -2.81757201747889   -3.07566810087690    5.38486306149852
C        -0.39646266767777   -1.92971639465494    7.48185660902283
H         1.48886336374259   -1.07642932975654    6.92408458278597
H        -2.32719657121026   -2.80885549099488    7.78636640763717
H        -0.21699359947146   -1.82775629167762    8.54328899639346
