98
 energy: -143.922560756063 gnorm: 0.000253513852 xtb: 6.4.1 (1a32961)
N        -0.98151860209384   -1.93833375587278   -0.47096960624083
C        -2.16424113092081   -1.31699695413765   -0.64798892335460
C        -2.94939250355815   -1.56648219641041   -1.77745261854468
C        -2.51802911434256   -2.47018733695230   -2.72504981038032
C        -1.30262372231168   -3.11798584186126   -2.52325668876764
C        -0.57878926653927   -2.81294520559249   -1.38953332758621
H         0.37190558715345   -3.28850715813307   -1.19213673858088
H        -0.92927280095067   -3.83570506736220   -3.23565518162662
H        -3.87733660987897   -1.03847912884028   -1.92513748761124
C        -2.55203863884089   -0.36160257887349    0.38520423532664
N        -1.59082260933030    0.01136850429822    1.25279924804319
C        -1.90175835361013    0.87251595920204    2.21578116359178
C        -3.16010150370082    1.42046578399564    2.37089581113207
C        -4.16289206467625    1.04437574214284    1.48318825328769
C        -3.85257995385042    0.14364779047163    0.48594936436463
H        -4.61963937320084   -0.18207539987806   -0.19722967367723
H        -3.35547400505289    2.11565188819662    3.17126186650579
H        -1.09494031305349    1.13480024289421    2.88200248766551
Ir        0.42149999999984   -0.81650000000015    0.91329999999988
H         0.87260000000008   -2.23030000000006    1.54050000000003
B         0.45705370808163    0.60109035605114   -0.62823219745284
O        -0.24331852345922    0.35697651623313   -1.79728427811374
C        -0.25187508997502    1.52376692689580   -2.62409926553929
C        -0.07190997630757    1.11478787471567   -4.08418642695592
H         0.80550096675754    0.48791502238467   -4.20309016594245
H         0.02013707800647    1.99692215938688   -4.71246646793278
H        -0.94195831898344    0.54481168708150   -4.40193165629913
C        -1.62748719202626    2.18404477782772   -2.45171477099328
H        -1.72325168203689    3.06441385844262   -3.08028245615078
H        -2.39423115464592    1.46385505958024   -2.73002320578751
H        -1.78232878616290    2.45621326785434   -1.40984684778701
C         0.91318720526804    2.37724549779638   -2.02267083439631
O         1.03061001700584    1.85062210879768   -0.69444860522703
C         2.25271962640293    2.11703011789207   -2.72267377364927
H         2.47414705163940    1.05350077103330   -2.67986904197812
H         2.23816845323633    2.46556887957976   -3.75135695209227
H         3.03827981908027    2.64114768617935   -2.18313809439353
C         0.64981927254896    3.88119416909759   -1.96542025132347
H        -0.18879416918729    4.10882943482772   -1.31451565000239
H         1.53037093361006    4.38323089200719   -1.57080484909286
H         0.44928375506067    4.26281614008092   -2.96337054384410
B         1.56603571194534    0.68861632495268    1.78490713117795
O         2.93065358498622    0.80359439289124    1.85526285787892
C         3.29813891260122    2.10266363156864    2.33952129461001
C         4.44322282500031    1.96686845620446    3.34327152809178
H         4.18548185755076    1.27971399160430    4.14243962544489
H         5.31862135133548    1.57400463560165    2.83210573525889
H         4.68962705694211    2.93751307238384    3.76493627674666
C         3.78074723985159    2.89947236662223    1.12162896797949
H         4.04541797631466    3.91806804849842    1.38876584677145
H         4.65727581145493    2.40515275894403    0.70824063331949
H         3.00093547239200    2.89125193046724    0.36511160120872
C         1.95343494429838    2.64827907594749    2.94113980508121
O         0.96852253885044    1.76996410251348    2.38290024021134
C         1.61167003711657    4.08409784293486    2.54341163794105
H         1.48767594211030    4.15861231449612    1.46821753150043
H         0.67377979097079    4.36779698085218    3.01448652159740
H         2.39053538761261    4.76522098893499    2.87502939169516
C         1.86789747688221    2.51632884076329    4.46684777628452
H         2.04347845800835    1.48809049418796    4.76980763561249
H         2.58318131020946    3.16944686413914    4.95726777878953
H         0.86484983526276    2.79039428526968    4.78597410805616
B         2.27820000000000   -1.33090000000113    0.17410000000064
O         3.14383017158534   -2.20773794405953    0.79577650015118
C         4.41215284852033   -2.21850969863954    0.13242103414827
C         5.36084481522335   -1.36431448916653    0.98033331347682
H         4.92346756892033   -0.37928434743266    1.11349352646529
H         5.45180154237677   -1.82248512143499    1.96206214464781
H         6.34608761681902   -1.29199638497065    0.52995018285945
C         4.94185962312163   -3.65175150908310    0.07237738615478
H         5.11727090440825   -4.00106601024382    1.08657190887794
H         5.87799796889948   -3.68257760719337   -0.47814886989249
H         4.22469306739289   -4.31986263853460   -0.39253165285619
C         4.08006366983827   -1.57289769089099   -1.25919850533703
O         2.82699059154148   -0.91429234960057   -1.01892094503807
C         5.10223899419470   -0.54832319833565   -1.74838044008814
H         6.08523082730468   -1.00430664843752   -1.82849259574461
H         4.80362722467976   -0.18497959961157   -2.72852974509752
H         5.14293683401390    0.29799182249494   -1.07138558352004
C         3.84125207064563   -2.61009356213002   -2.36512202006668
H         3.08686740775675   -3.32591250228635   -2.05072626795112
H         3.47049473731991   -2.09728727679974   -3.24940546292042
H         4.76031102239082   -3.13032808753156   -2.61690484041366
H        -3.10859619498337   -2.66561257692594   -3.60732880536298
H        -5.16263632483596    1.44109319950953    1.57561018305553
C         0.23590000000307   -1.68139999999834    2.96029999999996
C        -0.98933887243292   -2.23131235674794    3.38200634874426
C         1.17341111309991   -1.34322367258876    3.92644283791991
N        -1.92537812213992   -2.67347737622610    2.47075870159038
C        -1.28694687841154   -2.28637047451360    4.74657066076058
C         0.85837022317667   -1.41758635355087    5.27366003342867
H         2.15714828770145   -1.02452049392956    3.62125628948799
H        -1.56075299552627   -2.87763663278052    1.55280196479935
H        -2.61110874343224   -3.32271789595221    2.81881242567874
C        -0.37823216031491   -1.86686512800671    5.69878795719478
H        -2.24464778659610   -2.67560992190024    5.06192930157113
Cl        2.05270954632639   -0.95531688357684    6.45880917952367
H        -0.61753788990350   -1.91435201405457    6.74957989951684
