19
 energy: -26.800234598285 gnorm: 0.000219220976 xtb: 6.4.1 (1a32961)
C        -1.66881957815964   -1.18979533640860   -0.00963628509757
C        -2.53331986577497   -0.11928222870344   -0.00787994875166
C        -2.05681212192486    1.19550748643216   -0.00817051919168
C        -0.70687810381601    1.47149756758908   -0.01080375746691
C         0.17750410153809    0.39701560768576   -0.01280451634672
N         1.54311316823164    0.35884663367375   -0.01459397717013
C         2.44641287517585    1.47734842507215   -0.02626775389994
C         1.93726242110616   -0.94993165205452   -0.01635611599882
C         0.85461595441942   -1.77632095463894   -0.01400027211983
C        -0.29574117796281   -0.94193265326325   -0.01196100647958
H        -2.03901063550636   -2.20509191213200   -0.00899660937692
H        -3.60067035749880   -0.28941609660802   -0.00595170474000
H        -2.76610404260633    2.01072858716385   -0.00650126299057
H        -0.35861789487649    2.49406033041635   -0.01181546185694
H         1.87810513653627    2.40257330512731    0.02022252129518
H         3.04507215158453    1.47646513586363   -0.94038765583264
H         3.11790208991652    1.43211488728892    0.83384709851930
H         2.98203526603352   -1.19793724985218   -0.01825473976782
H         0.86511061358427   -2.84853988265200   -0.01383803272675
