103
 energy: -150.420033872025 gnorm: 0.000479388500 xtb: 6.4.0 (f63f532)
N        -0.91634318644286   -1.98168576727817   -0.40456425252593
C        -2.12971198259721   -1.45276749248291   -0.65310794616564
C        -2.99915220343135   -2.04957341068269   -1.57611546651738
C        -2.60615157240919   -3.17939368668492   -2.25834209236235
C        -1.34051760750764   -3.70386796618716   -2.00499882090361
C        -0.54632536419349   -3.07152234672768   -1.07221093502803
H         0.43838609451831   -3.45006783252116   -0.83622017100508
H        -0.98863217882025   -4.58444607772657   -2.51729672103595
H        -3.97762987101758   -1.63472733662066   -1.75370134312098
C        -2.46515759035919   -0.23556664259436    0.07236896962454
N        -1.57395167081792    0.17802891458411    0.99943778219011
C        -1.83971974266331    1.28678208759078    1.68786948587899
C        -2.97050215051000    2.05179207894408    1.49479738088953
C        -3.88317875073502    1.65533472944852    0.51976166777874
C        -3.62341842619274    0.50523381371811   -0.19313565708508
H        -4.31141849567218    0.18922158659296   -0.95975650349665
H        -3.13863826322773    2.93614055718192    2.08802677389768
H        -1.09646563601607    1.56130588033587    2.42111881065457
Ir        0.42150000000002   -0.81650000000000    0.91329999999994
H         0.87259999999999   -2.23029999999993    1.54049999999998
B         0.47340878575687    0.61063836604226   -0.60057098749921
O         0.04332091701896    0.28800360090709   -1.86916353184294
C         0.06250543282214    1.44941228696126   -2.70829686787664
C         0.63094558552082    1.07473295394563   -4.07492832292695
H         1.57808968144446    0.55808155055400   -3.96162101004007
H         0.76797485273889    1.96517521470439   -4.68286611168904
H        -0.06271394611377    0.40655166628382   -4.57971669115364
C        -1.39136017891291    1.91349772142586   -2.87261379343603
H        -1.45656759402882    2.76734848749767   -3.54048860414780
H        -1.97359123050420    1.09278617604486   -3.28701307162063
H        -1.81523040484626    2.17188308155726   -1.90417113499454
C         0.93548772235019    2.45407951876187   -1.88414196647087
O         0.82889229291754    1.93925150247709   -0.54851879253294
C         2.41941137529532    2.38658355381425   -2.26359685960090
H         2.76794606415955    1.36354997254139   -2.14661606835350
H         2.58570712593478    2.73675712603303   -3.27799582368720
H         2.98507463505370    3.01123492151999   -1.57687308865390
C         0.46449514191952    3.90638224307053   -1.92267681815322
H        -0.53167379707682    4.01247187016068   -1.50428004852848
H         1.14588147325944    4.51591466324809   -1.33388839987789
H         0.46766795576709    4.26961145378092   -2.94707319849894
B         1.56644719227721    0.61833572777090    1.92166798888720
O         2.87225463832989    0.98399077614475    1.74813122578972
C         3.18267624992894    2.16408871001850    2.50526095953280
C         4.49934435633326    1.94868957662923    3.25348897001114
H         4.47076084569194    1.03982609386403    3.84528129841997
H         5.30254293661237    1.84760444614338    2.52854008144081
H         4.71142763732724    2.79932977555654    3.89441034238583
C         3.36225576862901    3.29765387843885    1.48946057971468
H         3.55497205500245    4.24589786465399    1.98180583376887
H         4.20689219992043    3.05316971446416    0.84963463232232
H         2.47608203094433    3.36601630089801    0.86472845841220
C         1.92221787579341    2.34523719191251    3.43037917504997
O         0.98492217407339    1.39753983315598    2.89861633402268
C         1.28052414541047    3.73376460539948    3.37413530388131
H         0.94877929310223    3.96413832530878    2.36677327060512
H         0.41246779382647    3.74502167999190    4.02956678896033
H         1.98210372874653    4.49073569035390    3.71235824201908
C         2.16713767829708    1.98304788340851    4.90004644527077
H         2.58894175879096    0.98786614708492    4.99129300382583
H         2.83453459599268    2.70082294877500    5.36639999283201
H         1.21350732783020    1.99520679197834    5.42355302453613
B         2.27820000000045   -1.33089999999852    0.17409999999945
O         3.10519373281182   -2.27160526344485    0.74563912393601
C         4.38799837979511   -2.26532888811615    0.10384681794266
C         5.33085928610989   -1.46064629494740    1.00348028903181
H         4.91313672047646   -0.47049507177236    1.16201868090863
H         5.38929373389891   -1.95174045188852    1.97127874835310
H         6.32571107297340   -1.39382684565301    0.57550953509694
C         4.90157281206892   -3.69888654200532   -0.01626287744731
H         5.06385464763567   -4.09199287006722    0.98360806823337
H         5.84230594386376   -3.71365302642536   -0.55898502163945
H         4.18289163399404   -4.33806820162371   -0.51847353253476
C         4.08159597181624   -1.54606287664162   -1.25491135660824
O         2.85378571869431   -0.84836386943958   -0.97745227344962
C         5.14618827534441   -0.54543279422896   -1.69916424972424
H         6.10996796974819   -1.03930982381196   -1.78487864547279
H         4.87484995425006   -0.13757949809177   -2.66983097686810
H         5.21558348604239    0.27340113468672   -0.99133581000544
C         3.79662619475684   -2.52382296746580   -2.40232152937466
H         3.02222269836939   -3.22834355602110   -2.11129670355264
H         3.43276135374306   -1.96135983755043   -3.25879862883239
H         4.69620845232381   -3.06119322694007   -2.68621743726516
H        -3.26556728213603   -3.64683876011747   -2.97365625503815
H        -4.77239268754064    2.23526751060716    0.32347398936831
C         0.23590000000355   -1.68139999999890    2.96030000000036
C        -1.11523460982505   -1.86932020836916    3.23750389886033
C         1.08768698198300   -1.66743096509882    4.05807691387004
C        -1.62338667720868   -1.89215096259291    4.53652222422616
H        -1.83474695397513   -1.98975765813937    2.44171830394746
C         0.61421193540449   -1.71481648361396    5.35678655258249
Br        2.97188747222636   -1.64059059994976    3.83222488772098
C        -0.74449895896762   -1.80225996875168    5.60961352099608
O        -2.98420211671511   -1.99125616338240    4.61550911861275
H         1.31146029595587   -1.68852574258496    6.18041984681645
H        -1.08447782251521   -1.81816911184646    6.63217576290136
C        -3.62244194770226   -2.04514566298536    5.88152410573617
C        -3.57492046840451   -3.43488127673446    6.50953312180828
H        -4.65944198601073   -1.76984432450128    5.66717123906132
H        -3.19770722947677   -1.29289826476140    6.55643701530019
H        -4.03044248777476   -4.15769943914511    5.83719508597019
H        -4.12249425693395   -3.42754751715647    7.44761684712437
H        -2.54866534255450   -3.74010267110137    6.69788232269977
