10
 energy: -16.401369234619 gnorm: 0.000241555556 xtb: 6.4.0 (f63f532)
C         0.14548932028834    1.31116751032931    0.00850573416109
N        -1.04489732220626    0.74202917079985    0.01055233898686
N        -1.15452023615439   -0.55542824231210    0.00495373569179
C        -0.07621513380483   -1.31585909372540   -0.00291188534199
C         1.21805321997709   -0.79501641104822   -0.00520118137881
C         1.33425300824884    0.58096280187776    0.00064293533258
H         0.13812060312211    2.39168210346483    0.01407796952006
H        -0.26409533547981   -2.37999278579275   -0.00802506082515
H         2.08018868624753   -1.44385472425084   -0.01186910733916
H         2.29277318976137    1.07650967065755   -0.00048547880727
