102
 energy: -151.676176542481 gnorm: 0.000577069097 xtb: 6.4.1 (1a32961)
N        -0.92558137053006   -2.08560453947936   -0.35971810236977
C        -2.14689966147675   -1.57796306829801   -0.61454914490604
C        -3.01883662264862   -2.21280412951297   -1.50756941939148
C        -2.62143948819332   -3.36650348455158   -2.14802338411629
C        -1.34927632949496   -3.86883960516772   -1.88743898662675
C        -0.54778572025263   -3.19348685272717   -0.98884208325628
H         0.44537364097473   -3.54577176187055   -0.74999409603935
H        -0.99702138853906   -4.76749256638128   -2.36708455924881
H        -4.00235614180098   -1.81304098084251   -1.69220953306805
C        -2.49624813547808   -0.35460116677775    0.09683077688406
N        -1.60205622934133    0.08381300615707    1.00850523556542
C        -1.89264623007523    1.18136895446114    1.70531520246579
C        -3.04750657073850    1.91480945069060    1.52702480681619
C        -3.96078793672835    1.49612425445885    0.56277969370944
C        -3.67980372412885    0.35104757466857   -0.15164107458972
H        -4.37203730963439    0.01206049548753   -0.90493293403622
H        -3.23213337463559    2.79306265124516    2.12434710228963
H        -1.15402953978880    1.47293555502276    2.43605978534317
Ir        0.42150000000027   -0.81650000000024    0.91330000000007
H         0.87260000000005   -2.23030000000001    1.54050000000004
B         0.42984121744164    0.46062814640773   -0.72857871328670
O         0.22343014589260   -0.04212251457743   -2.00344639364453
C        -0.04499673931040    1.03070064018353   -2.91443167335398
C         0.62912355678497    0.75234209273732   -4.25556086128504
H         1.68500911479679    0.54059628072167   -4.12449895889431
H         0.50854880652488    1.60613444934845   -4.91757959660086
H         0.16173054557539   -0.11639115899639   -4.71392232731087
C        -1.56575343760012    1.08329557135605   -3.12217121386440
H        -1.83304765972306    1.83701240398454   -3.85700562386533
H        -1.90511000618797    0.10992907601059   -3.47159135981664
H        -2.06645487154659    1.29731128301544   -2.18015344722959
C         0.49708751046760    2.27431605292495   -2.13851152007665
O         0.43671251616164    1.83825833795513   -0.77321320906621
C         1.97012579993520    2.55858131877915   -2.45463238681859
H         2.55928009441763    1.66954379646248   -2.24237621228896
H         2.10035417007841    2.86599804329054   -3.48829472174739
H         2.32139525786075    3.35271114346821   -1.80107825304360
C        -0.31728292084475    3.55395176206145   -2.31587686567944
H        -1.32425141562483    3.43920075523007   -1.92641411759016
H         0.16608433814781    4.36178585769417   -1.77175288807429
H        -0.36394966562575    3.82004217436708   -3.36878299458792
B         1.46086649923905    0.76105575043844    1.83125498472729
O         2.66428239813977    1.31121023417888    1.49221996374223
C         2.90746516968912    2.52358646057919    2.21091888212233
C         4.33262461208329    2.49281518388659    2.76763856461145
H         4.49293642448468    1.61711089893524    3.38788850662188
H         5.02802502896867    2.44126860358167    1.93377764371448
H         4.53553545843974    3.39163385233414    3.34303318769412
C         2.79700001805756    3.66876035405544    1.19712363192805
H         2.92102098124425    4.63654543489952    1.67369210427398
H         3.57708445002577    3.53806163319839    0.45100130380233
H         1.83703036853586    3.61338508915459    0.69120625012421
C         1.77088341149683    2.53284864781367    3.29963297622290
O         0.90550620190144    1.46998619511093    2.87989239132459
C         0.95685810775292    3.82741103162607    3.36198978519715
H         0.47140099931139    4.02554749849793    2.41180308977335
H         0.18835737901962    3.72123513435851    4.12392818185600
H         1.59753895101442    4.66368022054682    3.62680623140026
C         2.26369220571727    2.19798828015623    4.71227158120795
H         2.78151570486057    1.24391177478800    4.72144642424687
H         2.92126780255550    2.97605108120398    5.08723765657909
H         1.40339491738262    2.11194771070683    5.37178568678911
B         2.27819999999922   -1.33089999999877    0.17410000000087
O         2.50849922481491   -2.68574897431003   -0.04468381069371
C         3.74426774070705   -2.90672274123904   -0.72857771919986
C         4.70611725946283   -3.57971428089011    0.25947990051182
H         4.86097249342266   -2.95326528103490    1.13258241684609
H         4.25819939515280   -4.51163618463552    0.59638922702320
H         5.66008087217408   -3.79513248842562   -0.21162230893064
C         3.49200172787061   -3.87109300276899   -1.89089823446737
H         3.17164353196867   -4.82722277922224   -1.48404329252475
H         4.40292005232698   -4.02327781598875   -2.46235298717935
H         2.70832796717091   -3.49967711278369   -2.54330554880542
C         4.17294191904803   -1.45385060833380   -1.15030589879170
O         3.29471052119184   -0.60854502776475   -0.39213140483383
C         5.62336075890975   -1.09659484220307   -0.82601823467844
H         6.30112936997102   -1.76554877340686   -1.34895222314280
H         5.81466498621596   -0.07641146388603   -1.14801952727699
H         5.80692021259902   -1.15118303191109    0.24182949657980
C         3.90339625580501   -1.15404603376910   -2.63090230971023
H         2.84452685665933   -1.28086529322899   -2.84280625461328
H         4.16741073925288   -0.11737496567495   -2.82794985980647
H         4.49449211004990   -1.79460384157624   -3.27827771245711
H        -3.28561986279282   -3.86859876281279   -2.83522703490196
H        -4.86807224224178    2.05138932002813    0.37825306510757
C         0.23589999999548   -1.68140000000032    2.96030000000034
C        -0.97946228958269   -1.99471809298033    3.52137896185848
C         1.15013622470878   -1.57655807432952    4.05895646403456
N        -0.88218923034783   -2.00860517531448    4.90048635719840
C        -2.28898651591260   -2.34339703675345    2.90612922335344
C         2.51980930317111   -1.40943344980693    4.23731291987992
C         0.39643454256135   -1.75870491302488    5.26143719384604
H        -1.63896220505895   -2.17582595910497    5.54277841774018
H        -2.72298084736062   -3.20333408561397    3.41514617921689
H        -2.15372263627964   -2.58875716887897    1.85868508998588
H        -2.99124910030546   -1.51257832398330    2.98198477468269
Cl        3.58047065286636   -1.25347460121519    2.87877414124961
C         3.02863178547999   -1.38111161430780    5.52695420584025
N         0.86257802365291   -1.72476203233872    6.49965123990562
C         2.16492466987972   -1.52724155597982    6.61039175963886
H         4.08565913937264   -1.25542637932706    5.68791930690335
H         2.54453036525628   -1.49730039114659    7.62166608613292
