10
 energy: -18.350437870455 gnorm: 0.000208781594 xtb: 6.4.1 (1a32961)
S         1.84687331114054    0.45212267318988   -0.00112790760042
C         1.32994896958742   -1.19273717690765    0.00175914222912
C        -0.01847296029831   -1.30949452618318   -0.00213277323908
C        -0.66420688540153   -0.03817258581745   -0.00759536072963
C        -2.05894106865087    0.12985991527899   -0.01250158659667
N        -3.20047455138215    0.25348346884186   -0.01634131145132
C         0.22917649724347    1.00215811546673   -0.00782422119099
H         2.06235949311967   -1.97473369322512    0.00650381400152
H        -0.55141287949608   -2.24266019765117   -0.00111186524869
H         0.01094007413784    2.05175400700709   -0.01143793017386
