106
 energy: -152.881280374382 gnorm: 0.000863404878 xtb: 6.4.0 (f63f532)
N        -0.96510000000000   -2.11530000000000   -0.24090000000001
C        -2.24700000000002   -1.69840000000002   -0.36220000000000
C        -3.14039999999999   -2.36820000000000   -1.21200000000001
C        -2.70220000000003   -3.47560000000001   -1.93050000000000
C        -1.37780000000004   -3.89879999999997   -1.78759999999998
C        -0.54290000000002   -3.18670000000002   -0.93509999999996
H         0.49810000000000   -3.45630000000000   -0.78940000000000
H        -0.99570000000000   -4.76029999999999   -2.32769999999998
H        -4.16499999999998   -2.02890000000001   -1.31830000000000
C        -2.62130000000000   -0.50949999999998    0.44100000000003
N        -1.62600000000000    0.07329999999997    1.16020000000000
C        -1.89680000000003    1.15240000000000    1.91690000000001
C        -3.17230000000003    1.70330000000007    1.99650000000002
C        -4.20509999999999    1.11739999999993    1.26270000000002
C        -3.92610000000001    0.00250000000001    0.47820000000005
H        -4.71960000000001   -0.46420000000001   -0.09520000000001
H        -3.34630000000000    2.57509999999998    2.62069999999996
H        -1.04450000000000    1.57420000000001    2.43690000000000
Ir        0.42150000000000   -0.81650000000000    0.91330000000000
H         0.87260000000000   -2.23030000000000    1.54050000000000
B         0.50670000000000    0.41559999999998   -0.81540000000000
O         0.19500000000001   -0.04700000000002   -2.09150000000003
C         0.00649999999999    1.10039999999997   -2.95430000000001
C         0.49019999999996    0.74740000000001   -4.35779999999996
H         1.51610000000002    0.37379999999999   -4.33700000000000
H         0.44730000000000    1.62239999999997   -5.01670000000000
H        -0.14740000000000   -0.03389999999999   -4.78430000000000
C        -1.50119999999999    1.39559999999999   -2.96669999999994
H        -1.75369999999998    2.21459999999999   -3.64849999999999
H        -2.03200000000000    0.49450000000002   -3.28929999999999
H        -1.85170000000001    1.65210000000002   -1.96220000000001
C         0.84229999999999    2.20670000000001   -2.22040000000000
O         0.75200000000000    1.78259999999998   -0.83689999999998
C         2.32930000000003    2.18620000000013   -2.59899999999996
H         2.74129999999999    1.18500000000001   -2.45750000000000
H         2.48870000000001    2.51299999999999   -3.63180000000000
H         2.87200000000001    2.86270000000000   -1.93199999999999
C         0.28440000000003    3.62289999999994   -2.33659999999993
H        -0.72649999999999    3.69040000000000   -1.92910000000001
H         0.92130000000000    4.31479999999999   -1.77610000000002
H         0.26430000000001    3.94810000000000   -3.38320000000003
B         1.56300000000001    0.60960000000000    1.84839999999999
O         2.92780000000001    0.55229999999997    2.15020000000000
C         3.36330000000001    1.88660000000001    2.50259999999998
C         4.53140000000002    1.78590000000006    3.47740000000000
H         4.27910000000000    1.16090000000002    4.33690000000001
H         5.39390000000003    1.33790000000001    2.97340000000000
H         4.82390000000000    2.77870000000000    3.83820000000000
C         3.79699999999999    2.56849999999999    1.19669999999999
H         4.20020000000000    3.57090000000001    1.37680000000000
H         4.56740000000000    1.95560000000001    0.72110000000000
H         2.95240000000000    2.63260000000000    0.50540000000000
C         2.05040000000000    2.50090000000005    3.09319999999998
O         1.03749999999997    1.81620000000001    2.31909999999998
C         1.89099999999997    4.00449999999993    2.88650000000003
H         1.87290000000001    4.25440000000000    1.82410000000003
H         0.94940000000002    4.34260000000001    3.33170000000001
H         2.71080000000000    4.55150000000000    3.36630000000000
C         1.82470000000003    2.13200000000009    4.56519999999998
H         1.92609999999999    1.05330000000006    4.71320000000000
H         2.52610000000002    2.65280000000000    5.22540000000003
H         0.80629999999999    2.41580000000000    4.84900000000001
B         2.27819999999999   -1.33089999999999    0.17410000000001
O         2.89460000000001   -2.57740000000000    0.38450000000001
C         4.26930000000002   -2.48200000000001   -0.07210000000006
C         5.10899999999998   -2.05379999999999    1.14009999999997
H         4.76350000000000   -1.08739999999998    1.51750000000000
H         4.98050000000000   -2.79470000000003    1.93590000000000
H         6.17420000000000   -1.99290000000000    0.89300000000000
C         4.71949999999997   -3.84659999999999   -0.58469999999994
H         4.75280000000000   -4.56130000000000    0.24419999999993
H         5.72329999999999   -3.78370000000001   -1.02010000000002
H         4.03499999999997   -4.23600000000000   -1.34170000000002
C         4.16440000000000   -1.36220000000001   -1.16299999999996
O         3.08520000000001   -0.55029999999999   -0.65399999999999
C         5.40720000000000   -0.48870000000000   -1.31549999999998
H         6.27320000000000   -1.09009999999999   -1.61530000000001
H         5.23300000000001    0.26929999999999   -2.08590000000002
H         5.64269999999999    0.02649999999998   -0.38239999999995
C         3.71799999999992   -1.89830000000002   -2.53109999999997
H         2.82529999999999   -2.52160000000000   -2.42739999999999
H         3.46089999999999   -1.05249999999993   -3.17550000000002
H         4.50570000000003   -2.48290000000003   -3.01790000000001
H        -3.38500000000002   -4.00129999999996   -2.59310000000000
H        -5.21400000000000    1.52080000000000    1.29959999999999
C         0.23590000000001   -1.68140000000000    2.96030000000001
C        -1.02341145467821   -2.14691003290863    3.34272464208551
N         1.24410742378113   -1.68515385999476    3.83231809081473
C        -1.23023762539032   -2.57931189079394    4.64212930666712
H        -1.83674223069750   -2.19532353228371    2.63140763051941
C         1.06911164116702   -2.14822063732219    5.07128157052262
C        -0.16128519032052   -2.60376792169652    5.52926001634842
H        -2.20477956290079   -2.93814182739004    4.95076574958232
C         2.33209415722751   -2.27204317671829    5.88746960530316
H        -0.27493220599706   -2.99270780731405    6.53198737710462
N         3.05841812090023   -3.45240749908594    5.46206673813155
H         2.10695488135565   -2.36779571024233    6.95293033039037
H         2.95612172606592   -1.38866493662761    5.71451110148853
C         3.39866566765663   -4.51979783268325    6.23669899793062
C         3.48461958504930   -3.67769710074722    4.18814609673693
C         4.05759803485307   -5.43365481847357    5.45488313538188
H         3.15752948969733   -4.55201583023071    7.28501053944320
C         4.10812007036266   -4.89785324958716    4.15131317792280
H         3.28012617969038   -2.96006318442067    3.41256658978699
H         4.45955065302279   -6.37904195027716    5.77691875602457
H         4.55700989596114   -5.35962137187729    3.28849215151868
