103
 energy: -154.405698034434 gnorm: 0.000910721014 xtb: 6.4.1 (1a32961)
N        -0.96510000000000   -2.11530000000000   -0.24090000000000
C        -2.24700000000000   -1.69840000000000   -0.36220000000000
C        -3.14040000000000   -2.36820000000000   -1.21200000000000
C        -2.70219999999999   -3.47560000000001   -1.93050000000000
C        -1.37780000000001   -3.89880000000000   -1.78760000000000
C        -0.54290000000000   -3.18670000000000   -0.93510000000000
H         0.49810000000000   -3.45630000000000   -0.78940000000000
H        -0.99570000000000   -4.76029999999999   -2.32770000000000
H        -4.16500000000000   -2.02890000000000   -1.31830000000000
C        -2.62130000000000   -0.50950000000000    0.44100000000001
N        -1.62600000000000    0.07330000000001    1.16020000000000
C        -1.89680000000000    1.15240000000000    1.91690000000000
C        -3.17230000000000    1.70330000000000    1.99650000000000
C        -4.20510000000000    1.11740000000000    1.26269999999999
C        -3.92610000000000    0.00250000000000    0.47820000000000
H        -4.71960000000000   -0.46420000000000   -0.09520000000000
H        -3.34630000000000    2.57510000000000    2.62070000000000
H        -1.04450000000000    1.57420000000000    2.43690000000000
Ir        0.42150000000000   -0.81650000000000    0.91330000000000
H         0.87260000000000   -2.23030000000000    1.54050000000000
B         0.50670000000000    0.41559999999999   -0.81540000000000
O         0.19500000000000   -0.04699999999999   -2.09150000000000
C         0.00649999999999    1.10040000000000   -2.95430000000001
C         0.49020000000000    0.74740000000001   -4.35780000000000
H         1.51610000000001    0.37380000000000   -4.33700000000000
H         0.44730000000000    1.62240000000000   -5.01670000000000
H        -0.14740000000000   -0.03390000000000   -4.78430000000000
C        -1.50120000000000    1.39559999999999   -2.96669999999999
H        -1.75370000000000    2.21460000000000   -3.64850000000000
H        -2.03200000000000    0.49449999999999   -3.28930000000000
H        -1.85170000000000    1.65210000000000   -1.96220000000000
C         0.84230000000000    2.20670000000000   -2.22040000000000
O         0.75200000000000    1.78260000000000   -0.83690000000000
C         2.32930000000000    2.18619999999999   -2.59900000000000
H         2.74130000000000    1.18499999999999   -2.45750000000000
H         2.48870000000000    2.51300000000000   -3.63180000000000
H         2.87200000000000    2.86270000000000   -1.93200000000001
C         0.28440000000000    3.62290000000000   -2.33660000000000
H        -0.72649999999999    3.69040000000000   -1.92910000000000
H         0.92130000000000    4.31480000000000   -1.77610000000000
H         0.26430000000000    3.94810000000000   -3.38320000000000
B         1.56300000000000    0.60960000000000    1.84840000000000
O         2.92780000000000    0.55230000000000    2.15020000000000
C         3.36330000000000    1.88660000000000    2.50260000000000
C         4.53140000000000    1.78590000000000    3.47740000000000
H         4.27910000000000    1.16090000000000    4.33690000000000
H         5.39390000000000    1.33790000000000    2.97340000000000
H         4.82390000000000    2.77870000000000    3.83820000000000
C         3.79700000000000    2.56850000000000    1.19670000000000
H         4.20020000000000    3.57090000000000    1.37680000000000
H         4.56740000000000    1.95560000000000    0.72110000000000
H         2.95240000000000    2.63260000000000    0.50540000000000
C         2.05040000000000    2.50090000000000    3.09320000000000
O         1.03750000000000    1.81620000000000    2.31910000000000
C         1.89100000000000    4.00450000000000    2.88650000000000
H         1.87290000000000    4.25440000000000    1.82410000000000
H         0.94940000000000    4.34260000000000    3.33170000000000
H         2.71080000000000    4.55150000000000    3.36630000000000
C         1.82470000000000    2.13200000000001    4.56520000000000
H         1.92610000000000    1.05330000000001    4.71320000000000
H         2.52610000000000    2.65280000000000    5.22540000000000
H         0.80629999999999    2.41580000000000    4.84900000000000
B         2.27820000000000   -1.33090000000000    0.17410000000000
O         2.89460000000000   -2.57740000000000    0.38450000000000
C         4.26930000000000   -2.48200000000000   -0.07210000000001
C         5.10900000000000   -2.05380000000000    1.14010000000000
H         4.76350000000000   -1.08740000000000    1.51750000000000
H         4.98050000000000   -2.79470000000000    1.93590000000000
H         6.17420000000000   -1.99290000000000    0.89300000000000
C         4.71950000000000   -3.84660000000000   -0.58470000000000
H         4.75280000000000   -4.56130000000000    0.24420000000000
H         5.72330000000000   -3.78370000000000   -1.02010000000000
H         4.03500000000000   -4.23600000000000   -1.34170000000000
C         4.16440000000000   -1.36220000000000   -1.16299999999999
O         3.08520000000000   -0.55030000000000   -0.65400000000000
C         5.40720000000000   -0.48870000000000   -1.31549999999999
H         6.27320000000000   -1.09010000000000   -1.61530000000000
H         5.23300000000000    0.26930000000000   -2.08590000000000
H         5.64270000000000    0.02650000000000   -0.38240000000000
C         3.71800000000001   -1.89829999999999   -2.53109999999999
H         2.82530000000000   -2.52160000000000   -2.42740000000000
H         3.46090000000000   -1.05250000000000   -3.17550000000000
H         4.50570000000000   -2.48290000000000   -3.01790000000000
H        -3.38500000000000   -4.00130000000000   -2.59310000000000
H        -5.21400000000000    1.52080000000000    1.29960000000000
C         0.23590000000000   -1.68140000000000    2.96030000000000
C        -0.99088696786612   -2.12379405774498    3.48525929691264
C         1.29710962244966   -1.63275569193216    3.87187531524493
C        -1.17603512467128   -2.36835723909965    4.85415272760845
C        -2.11947488629570   -2.43483994669907    2.68776653061409
C         1.14493707273717   -1.94375802970745    5.22112235309313
H         2.28911355049427   -1.38633885054628    3.51331611990568
C        -0.11184273315196   -2.28515212610028    5.73056941103735
H        -2.15754951173258   -2.66081498820987    5.20886005480642
N        -3.07123517858859   -2.77129207669093    2.13352275725878
C         2.35405919035390   -1.99602713804697    6.07546601672479
H        -0.23733777964544   -2.50359421816476    6.78228204843330
O         3.36851731158266   -1.35824319742526    5.89084235153092
O         2.20873318445270   -2.88152263903771    7.07634246983038
C         3.33273434668593   -3.11940981058910    7.92254087397907
H         2.93054083720476   -3.47144179346781    8.87211242742785
H         3.90966363743184   -2.20093299302407    8.05457672716974
H         3.96880389212874   -3.88564097239546    7.47235460343599
