103
 energy: -154.421892014959 gnorm: 0.000388456652 xtb: 6.4.1 (1a32961)
N        -0.90018447132780   -1.94893390474460   -0.46809097228086
C        -2.14278031400784   -1.45950989180723   -0.61914923916517
C        -3.01531433932282   -1.99869959247706   -1.57075366514424
C        -2.60018201920938   -3.04143358050375   -2.37068835957260
C        -1.30887410864153   -3.53193207308736   -2.20828985646579
C        -0.50746520777626   -2.95191528821437   -1.24655759765659
H         0.50123765624360   -3.30277534035055   -1.07941801990483
H        -0.94069942963808   -4.34719850270144   -2.80944914837676
H        -4.01478805573349   -1.61332560565638   -1.68021197414683
C        -2.52062563886097   -0.35637438607766    0.25986341229566
N        -1.59867653623606    0.04574020048901    1.15722280021462
C        -1.91049210463849    1.02611799047726    2.00175082222218
C        -3.13131541574452    1.66997671928267    2.00433293787993
C        -4.08488560897733    1.28334760232441    1.06847888062066
C        -3.77182946291242    0.26505337800776    0.19295492710548
H        -4.49982313241982   -0.04725609055546   -0.53619281882042
H        -3.33256437289999    2.45196648704236    2.71847353232691
H        -1.12951445306917    1.30576995967679    2.69284197961114
Ir        0.42150000000015   -0.81650000000006    0.91329999999963
H         0.87260000000009   -2.23029999999986    1.54050000000008
B         0.43044377430908    0.68686512294117   -0.54095761074099
O        -0.32842701617511    0.54899727879316   -1.68826642666237
C        -0.38677866008822    1.79803976145335   -2.38834306917237
C        -0.30635961937059    1.55163507669523   -3.89267443172043
H         0.54756038557131    0.92867992653027   -4.13686302405554
H        -0.23255752649963    2.49802130727348   -4.42225736408616
H        -1.20702006366679    1.03655997062618   -4.21785986585263
C        -1.74182051207428    2.43671281743653   -2.05171577418940
H        -1.87574205863168    3.37481670250111   -2.58183403757956
H        -2.53291426788166    1.74833561490067   -2.34199321750551
H        -1.81956871311764    2.60507703619474   -0.97940957790383
C         0.81935825850635    2.58523599741462   -1.77893446698738
O         1.00311975252327    1.93526430950444   -0.51229171181430
C         2.11551157075979    2.38018777015276   -2.57178157103091
H         2.31926460771154    1.31530491120646   -2.65344910711160
H         2.05391267990631    2.83460453103669   -3.55621368060781
H         2.93648911094946    2.83430458172994   -2.02191388246249
C         0.57736236887917    4.07821898523479   -1.56706570009216
H        -0.21938746536856    4.24931217016776   -0.84973854026947
H         1.48554042057393    4.53531043166459   -1.18119350378791
H         0.32286978639738    4.55164247961592   -2.51166285293779
B         1.57117473304075    0.63463173419729    1.89083130522255
O         2.93006737927875    0.77951226194184    1.87395235820660
C         3.32156896386371    2.01352364854815    2.49244569132389
C         4.49287711236832    1.75073792775340    3.44008595139581
H         4.24844695901568    0.97981893889684    4.16408683209267
H         5.34564520271478    1.40717776083512    2.86014768212621
H         4.76826793834076    2.66394600922181    3.96018521853506
C         3.78119260813092    2.93781958409864    1.35851813538842
H         4.04771193493254    3.92284788161322    1.72884941260791
H         4.65199490340431    2.49374701301574    0.88171863554952
H         2.99084288063302    3.00841973687702    0.61659462994687
C         2.00085511269291    2.49610587743782    3.19645363127185
O         0.99823910389690    1.62884181046297    2.64742693101598
C         1.60396386766081    3.94124064019946    2.89023013996925
H         1.42890105511240    4.06767624472649    1.82705331000997
H         0.68137241888025    4.17176015973293    3.41742037927197
H         2.37751487313771    4.62722134920512    3.22303903037024
C         2.00188633302132    2.29294607219613    4.71589539055555
H         2.24649183288578    1.26495327813310    4.96532614621791
H         2.71234029028014    2.96047424621545    5.19377665036964
H         1.00568852681220    2.50650426070736    5.09727491486846
B         2.27819999999985   -1.33090000000065    0.17410000000064
O         3.17528602390655   -2.18675304052533    0.77167920916868
C         4.41764028373695   -2.18563223981596    0.05409490870438
C         5.38452865281785   -1.30554677161924    0.85228705794796
H         4.93611787553557   -0.32619156017541    0.98998854524814
H         5.52241925388608   -1.74839226957471    1.83552583750862
H         6.34895943744664   -1.22378744966029    0.36069400928234
C         4.96642291512807   -3.61065717423190   -0.01328272939577
H         5.19594242369306   -3.94450275213776    0.99520080311980
H         5.87542343019862   -3.63299729756476   -0.60771384344556
H         4.23897849679114   -4.29561679227218   -0.43586282302710
C         4.01860225748283   -1.56137040649017   -1.32991761094465
O         2.76621874658681   -0.91746006027535   -1.04240120002344
C         4.99938613338542   -0.52396968766228   -1.87312191836012
H         5.98521378861344   -0.96357299214014   -1.99576344728332
H         4.64783266688621   -0.17533752052377   -2.84088790087596
H         5.05616462131202    0.32889581851446   -1.20570928244288
C         3.74827891639115   -2.61286754756184   -2.41432413293060
H         3.02768195803980   -3.34415551359586   -2.05894218183345
H         3.32168031959829   -2.11549312611475   -3.28184185206854
H         4.66554824158722   -3.11370109814301   -2.70830858675011
H        -3.26564406099619   -3.46778364965527   -3.10569424332809
H        -5.04913777973923    1.76657300527016    1.02742361508572
C         0.23590000000143   -1.68139999999779    2.96030000000220
C        -1.01682993438459   -2.12191980011631    3.42385587079355
C         1.22722092890599   -1.48978260145976    3.92323426790955
C        -1.28908496107561   -2.24394789160139    4.79682097412395
C        -2.04017210369581   -2.50064983901276    2.53534221739786
C         0.96721331646165   -1.61868511555513    5.28227885234735
H         2.22984239391358   -1.24369546565606    3.60786959636124
C        -0.31130535082865   -1.98254065942670    5.72558555421594
H        -2.27524334766964   -2.55685900991416    5.10939994859818
N        -2.89713519976353   -2.86412891259462    1.85865356127091
C         2.07209579233199   -1.37774728545087    6.23447636905586
H        -0.51092142916621   -2.07021192963707    6.78111911019399
O         3.11699937219962   -0.83164117839969    5.94627808444752
O         1.80994586444383   -1.82943434541112    7.46498825256555
C         2.83138856420895   -1.64720156689306    8.44343316305825
H         2.45397759875367   -2.10378212324059    9.35410775570450
H         3.02510382451545   -0.58314490732786    8.59148284389880
H         3.75376306413669   -2.13190219004277    8.11793061995709
