125
 energy: -176.406332024253 gnorm: 0.000759766993 xtb: 6.4.1 (1a32961)
N        -0.92187468937519   -2.11019711869658   -0.31602420840956
C        -2.21473517531732   -1.74218050188735   -0.37519688708940
C        -3.12175579419315   -2.43367690980829   -1.19004506303152
C        -2.68562319062358   -3.48863165581027   -1.96030776754110
C        -1.33953792569652   -3.84253860353066   -1.90498247928446
C        -0.51061415532480   -3.12636193331704   -1.06685956915096
H         0.53876061408594   -3.36996652822039   -0.98211763297735
H        -0.95266637917052   -4.65722306062573   -2.49508384312608
H        -4.16080338538774   -2.14980429632354   -1.22145496772014
C        -2.59961552575278   -0.59175542751852    0.43173541226321
N        -1.63274431221547   -0.02962667146784    1.18792807890159
C        -1.94136307179713    1.02772134617613    1.93533172772338
C        -3.20019607209101    1.59125886817297    1.97751501342676
C        -4.20608257354938    1.03186217158327    1.19372191375832
C        -3.89732681404058   -0.06305664161258    0.41653883863617
H        -4.66028686531843   -0.50121638017076   -0.20568415060696
H        -3.39540930761569    2.44053385771341    2.61167907856250
H        -1.12691889554321    1.43003449080195    2.51824693467806
Ir        0.42149999999818   -0.81650000001288    0.91330000001172
H         0.87260000000005   -2.23029999999573    1.54050000003320
B         0.17002309012783    0.63745185892525   -0.59179076131842
O        -0.57045247516178    0.32002060483344   -1.71928634650073
C        -0.90297618065413    1.50879071478292   -2.44463048918385
C        -0.79739534606322    1.24715065281231   -3.94507170361886
H         0.16644264761033    0.81820050465412   -4.19746548140699
H        -0.94138257245751    2.17323162685844   -4.49604004960563
H        -1.57074016087038    0.54071622486328   -4.23783073002993
C        -2.35824445590693    1.86070635816284   -2.10272210411571
H        -2.69572156184871    2.72325097844494   -2.67001782549420
H        -2.98983391215554    1.00819981339465   -2.34545210704604
H        -2.45792385240179    2.06251872700676   -1.03834559378716
C         0.11561482796717    2.55000888991600   -1.87725286162974
O         0.45688926235508    1.98550990744592   -0.60473067738851
C         1.40730251546489    2.61272176465445   -2.70174087596654
H         1.83089074312496    1.61439990540549   -2.78153053381275
H         1.22516945226598    3.02836578359283   -3.68868410606530
H         2.12694989478535    3.23917768437107   -2.18042606312633
C        -0.43704055122579    3.96185000520706   -1.68737689269043
H        -1.24150799723326    3.97601106944582   -0.95811048384355
H         0.35764367357980    4.61078918433066   -1.32649360344693
H        -0.80076969670152    4.35023733843779   -2.63520661708433
B         1.50521552615092    0.79606353397986    1.69174718136286
O         2.78345320078957    1.20632675059684    1.39178573757975
C         3.06883471844844    2.47968750815660    1.98677252101365
C         4.44819789742740    2.42799016418368    2.64723820198790
H         4.51829977864228    1.59906770510123    3.34353984006219
H         5.20281199179570    2.28627275428927    1.87777573478302
H         4.65149930549275    3.35998767619558    3.16697268372029
C         3.09735962259285    3.50464121374804    0.84745248736133
H         3.27145750401557    4.51017940561627    1.21853686519994
H         3.89737919599694    3.23660927440823    0.16117739658759
H         2.15888262904360    3.45515652861003    0.30402392056125
C         1.87076859811853    2.68843026643562    2.98392018963846
O         0.94196099166832    1.66865645841151    2.59638909017483
C         1.17552665675034    4.04692881168828    2.87357125674055
H         0.75699350282171    4.18256649149434    1.88176496693484
H         0.36286877489796    4.08518508249831    3.59511032284378
H         1.87363771291068    4.85006470002258    3.09203162939253
C         2.23578347523387    2.44164311382473    4.45340184996161
H         2.66496026425368    1.45298406877891    4.57859122488514
H         2.93117827098822    3.19385450517311    4.81303352519520
H         1.32701187429410    2.48709185720591    5.04868356160725
B         2.27820000005418   -1.33090000006675    0.17409999991863
O         3.30600236332239   -2.09702703841551    0.67548171020903
C         4.47059662640916   -1.95710823130947   -0.15169127866422
C         5.37082850759868   -0.92880367028959    0.54048023201170
H         4.80694973363729   -0.01149395421363    0.68534535992446
H         5.64486485946490   -1.31405337909005    1.51929132948345
H         6.27340498172507   -0.74069014055011   -0.03241017261454
C         5.19818037188109   -3.29668797324207   -0.24539002612197
H         5.57664105514438   -3.56204274126016    0.73801925304368
H         6.03360170214893   -3.21817443378930   -0.93551529561229
H         4.52994495130237   -4.08592389584604   -0.57315405615555
C         3.87536035155818   -1.42807563415567   -1.50203898544855
O         2.60221227223095   -0.90736272159962   -1.09811939979944
C         4.67952604287836   -0.31300974571946   -2.16883184737518
H         5.69310560696916   -0.64487058413250   -2.37624298386510
H         4.19993094427258   -0.04379486728193   -3.10681346404977
H         4.69971446394882    0.56682453824573   -1.53503647300485
C         3.61407368120007   -2.54053222678384   -2.52694068803352
H         3.02571878518841   -3.33607782820334   -2.07812422768733
H         3.04142985192213   -2.12380964328286   -3.35200179717252
H         4.54584939476023   -2.94459205864054   -2.91095697709702
H        -3.37380817486377   -4.02631681397444   -2.59474339144196
H        -5.20382600662027    1.44309365255604    1.19314878385027
C         0.23589999992550   -1.68139999988709    2.96029999996633
C        -1.04104943745552   -2.15721808454557    3.24347910471090
C         1.22795362237048   -1.72543020357696    3.97610728987627
C        -1.34092603987081   -2.60285064985994    4.52300091789047
H        -1.80387394872946   -2.24190852512064    2.48240728378171
C         2.66159706483337   -1.40612332958999    3.64115693850729
C         0.90818449121854   -2.14665055077996    5.25391598869832
N        -2.47528604615626   -3.21664153691202    5.00456694638451
C        -0.37056557249591   -2.60529280764504    5.54388000472593
C         3.67016798289654   -1.50200547888588    4.78240065067342
H         2.69905640999563   -0.40877205674200    3.20931144946225
H         2.96978167842257   -2.07839358560619    2.83918183804086
H         1.65651769390119   -2.18572424598731    6.02782055557410
C        -2.28809307969062   -3.58004799141825    6.31054470014286
O        -3.69417238610418   -3.20357691249851    4.35797375391657
C        -0.96784767551634   -3.22640700911756    6.69013215936575
H         3.42161884193147   -0.82338481935278    5.59636295265492
H         4.65559565017068   -1.23304863417798    4.40752257268078
H         3.72642247683488   -2.51520928377965    5.17422099182102
C        -3.13651996189911   -4.24797382347407    7.18063803715782
Si       -4.82201838533050   -1.98135256035731    4.59428997471424
C        -0.51350972972905   -3.54194680946562    7.96449194486741
C        -2.65854067630781   -4.54676961891874    8.44289037562625
H        -4.12996537591814   -4.53395987358784    6.87272035574423
C        -5.97788728553126   -2.38810871565499    6.05560837028731
C        -3.90681565720679   -0.34834071929333    4.93037298919203
C        -5.75206399381714   -2.04779682889089    2.94183533263468
C        -1.36607462722998   -4.19760808266987    8.83159690532832
H         0.49135962209143   -3.28491144285470    8.26392602148733
H        -3.29700863708508   -5.06886367457948    9.14044013088981
H        -6.39170228978792   -3.38875024638683    5.96406076248103
H        -6.81162399623556   -1.69481005674940    6.09703871826336
H        -5.45890095477947   -2.33138988724488    7.00873999638429
H        -3.38067804144353   -0.39247899576890    5.88107791794432
H        -4.58206818028642    0.49931489069179    4.96852666508959
H        -3.16475446262632   -0.15085916350437    4.16093777460070
H        -6.04784470902701   -3.06398771987076    2.70195286503364
H        -5.13081591149762   -1.68203632308286    2.13055180707245
H        -6.64767179257462   -1.43822451557545    2.97895327945902
H        -1.02705204313628   -4.45405081050921    9.82467614875434
