125
 energy: -176.393975107398 gnorm: 0.000855838081 xtb: 6.4.1 (1a32961)
N        -0.96509999999416   -2.11530000000557   -0.24090000002297
C        -2.24699999997907   -1.69839999999349   -0.36219999996997
C        -3.14040000002278   -2.36819999999991   -1.21200000002148
C        -2.70219999999028   -3.47560000000492   -1.93049999999130
C        -1.37779999999893   -3.89880000002803   -1.78759999998103
C        -0.54289999998308   -3.18670000000441   -0.93510000003074
H         0.49810000001422   -3.45629999999754   -0.78940000000343
H        -0.99570000000534   -4.76029999999046   -2.32769999999663
H        -4.16500000000077   -2.02890000000244   -1.31829999999896
C        -2.62130000001679   -0.50949999999740    0.44099999999484
N        -1.62599999999907    0.07329999998966    1.16019999998929
C        -1.89680000000101    1.15240000000127    1.91689999998895
C        -3.17229999999889    1.70329999998387    1.99649999998585
C        -4.20509999998895    1.11739999999640    1.26270000000632
C        -3.92609999998238    0.00250000000593    0.47819999998608
H        -4.71960000001164   -0.46420000000209   -0.09520000000316
H        -3.34629999999759    2.57510000000507    2.62069999999923
H        -1.04450000000187    1.57420000000006    2.43690000000388
Ir        0.42149999999857   -0.81650000000258    0.91329999999935
H         0.87260000000007   -2.23029999999958    1.54049999999965
B         0.50669999999821    0.41559999999500   -0.81539999999728
O         0.19499999999812   -0.04700000000187   -2.09150000000566
C         0.00649999997498    1.10039999999865   -2.95429999999084
C         0.49020000002785    0.74740000002276   -4.35780000000530
H         1.51610000000192    0.37379999999951   -4.33700000000045
H         0.44730000000422    1.62239999999423   -5.01670000000192
H        -0.14740000000848   -0.03389999998455   -4.78430000000160
C        -1.50119999998392    1.39559999999000   -2.96669999999272
H        -1.75370000000020    2.21460000000363   -3.64850000000266
H        -2.03199999999907    0.49450000001085   -3.28930000000272
H        -1.85169999999625    1.65209999999811   -1.96219999999825
C         0.84229999999527    2.20669999998917   -2.22039999999977
O         0.75199999999464    1.78260000001342   -0.83689999999364
C         2.32930000000948    2.18620000002056   -2.59899999999717
H         2.74129999999239    1.18500000000259   -2.45749999999957
H         2.48869999999493    2.51300000000305   -3.63180000000410
H         2.87200000000620    2.86270000000548   -1.93200000000910
C         0.28439999997138    3.62290000003360   -2.33659999998773
H        -0.72649999998760    3.69039999999768   -1.92910000000601
H         0.92129999998593    4.31479999999339   -1.77609999999108
H         0.26429999999733    3.94810000000347   -3.38319999999559
B         1.56300000000043    0.60960000000230    1.84840000000260
O         2.92780000000169    0.55230000000097    2.15019999999965
C         3.36330000000587    1.88660000000036    2.50260000002023
C         4.53140000001753    1.78589999999092    3.47739999997803
H         4.27909999999813    1.16090000000516    4.33689999999128
H         5.39390000001019    1.33790000000783    2.97340000000390
H         4.82390000000123    2.77870000000222    3.83819999999771
C         3.79699999999592    2.56850000000202    1.19669999998954
H         4.20019999999794    3.57089999999853    1.37680000000173
H         4.56739999999322    1.95559999999995    0.72110000000066
H         2.95239999999830    2.63259999999892    0.50540000000480
C         2.05039999999010    2.50089999999708    3.09320000000874
O         1.03750000000482    1.81620000000141    2.31909999999495
C         1.89100000002045    4.00449999999442    2.88650000002454
H         1.87289999999981    4.25440000000390    1.82410000000927
H         0.94939999999587    4.34259999999930    3.33169999999524
H         2.71080000000623    4.55150000000057    3.36629999999135
C         1.82470000000608    2.13200000000736    4.56520000000101
H         1.92610000000175    1.05329999999720    4.71320000000048
H         2.52610000001263    2.65280000000263    5.22539999999325
H         0.80630000002753    2.41580000000434    4.84899999999601
B         2.27820000001355   -1.33090000002433    0.17410000000320
O         2.89460000000471   -2.57739999999587    0.38449999999340
C         4.26930000000415   -2.48200000000455   -0.07209999998791
C         5.10900000001127   -2.05379999999704    1.14009999999438
H         4.76350000000151   -1.08739999999659    1.51750000000184
H         4.98050000000071   -2.79469999999865    1.93589999999635
H         6.17420000000555   -1.99289999999971    0.89300000000173
C         4.71949999998495   -3.84660000001006   -0.58469999998697
H         4.75280000000013   -4.56130000000124    0.24419999999668
H         5.72330000003279   -3.78370000000013   -1.02010000000330
H         4.03500000000503   -4.23600000000000   -1.34170000000685
C         4.16439999998173   -1.36219999998874   -1.16300000000824
O         3.08520000000816   -0.55029999999275   -0.65399999999524
C         5.40719999998370   -0.48869999999229   -1.31549999999086
H         6.27320000000083   -1.09009999998593   -1.61529999999806
H         5.23299999999934    0.26930000000236   -2.08590000000101
H         5.64270000000253    0.02649999999450   -0.38239999997661
C         3.71800000002285   -1.89830000001363   -2.53109999996588
H         2.82530000003485   -2.52159999999373   -2.42740000000369
H         3.46090000000080   -1.05249999997375   -3.17549999999391
H         4.50570000000054   -2.48289999998846   -3.01790000001607
H        -3.38499999998970   -4.00129999999022   -2.59310000001486
H        -5.21399999999878    1.52080000000118    1.29959999999949
C         0.23590000000060   -1.68139999999671    2.96030000000632
C        -0.99023424926948   -2.13317550222058    3.45282828116204
C         1.33531530330384   -1.67845343725455    3.82327136597564
C        -1.15853630546748   -2.54932875112553    4.76519933708044
H        -1.84788596156508   -2.18778163672552    2.79241530970495
C         1.18047987681463   -2.10809033496860    5.13770657925056
H         2.31287482185841   -1.39943291277465    3.46494135350694
C        -0.05872540607563   -2.56723937221809    5.62970085356883
H        -2.12338113537210   -2.90134330723348    5.10750689911847
N         2.12647248084723   -2.26191481387718    6.13291738028092
C         0.17732485121209   -3.05896351799257    6.95590451723317
O         3.49425582403758   -2.07847607051334    5.93506855234107
C         1.55132990943504   -2.88173367811498    7.21618966761739
C        -0.62347098142237   -3.68188648159354    7.91733211232761
Si        4.56275858139186   -1.04661476238624    6.70194760175800
C         2.13504261605364   -3.32385129332924    8.39884569451005
C        -0.05146033253358   -4.13315231628422    9.10037550128786
H        -1.67950336322690   -3.82999288371347    7.72850609680202
C         5.86900452082201   -0.89812956024420    5.32713851202104
C         3.70952532972839    0.54811751384359    7.26023609738128
C         5.42523570553531   -1.81114280721489    8.21996610323670
C         1.31567570738518   -3.94822568967644    9.32629091414356
H         3.19459883464249   -3.20806799728624    8.57172849232715
C        -0.87896643609908   -4.82153350854484   10.15555162624256
H         5.41765202072037   -0.92487216302104    4.33948445918055
H         6.58134684421612   -1.71960310120764    5.38417148699736
H         6.43406830635423    0.02721155276269    5.41954861425679
H         2.69392956959486    0.60472206954030    6.87448786242617
H         4.23778458891879    1.43830736935148    6.92291102340873
H         3.64396738172369    0.61095457508990    8.34635058895630
H         5.67371419413652   -2.85918271239602    8.05890981682286
H         4.83430211493682   -1.74185945361281    9.13175401311026
H         6.36140606289436   -1.28578342244271    8.41072987623680
H         1.75143382515862   -4.31819779553479   10.24678019247686
C        -1.13727700658997   -3.90657922410982   11.34868431088286
H        -0.35047918905298   -5.71629924066876   10.49922074791603
H        -1.83359605454519   -5.13837452745229    9.72551954154055
H        -0.19603440231859   -3.58167323012070   11.79206720540180
H        -1.71764571420873   -4.42813826501917   12.11160595275970
H        -1.69032695676305   -3.02006250849708   11.03569421447705
