34
 energy: -59.302870698961 gnorm: 0.000175184124 xtb: 6.4.1 (1a32961)
C         1.27348400910470   -1.38985086280997   -0.05261908495687
C         2.46629791594010   -0.70387255788049   -0.05747666505722
C         2.48694535788648    0.68762468757517   -0.00696596260854
C         1.29850355312357    1.37145087647205    0.05578510858684
C         0.06651573219766    0.70053601516382    0.06866469615805
C        -1.15063176004444    1.44393733598933    0.14228584532538
C        -2.34962801301496    0.82084849460204    0.17257915775816
B        -2.39336058324573   -0.70246180238657    0.11832630473067
C        -3.77561324527057   -1.46769736218628    0.19343962705457
C        -4.73355085226574   -1.31251678083645   -0.80925896035988
C        -5.97170506436067   -1.92333240432825   -0.73339454361192
C        -6.28098276934914   -2.70030424241403    0.37587009404726
C        -7.60475735827777   -3.38788874409569    0.47732498560355
F        -8.55293034189264   -2.86216273919941   -0.31892061694587
F        -7.53795024554843   -4.70053664270658    0.14042965816025
F        -8.11788242833652   -3.37015131947386    1.72501107163796
C        -5.34968612400163   -2.87068227094534    1.39422276866208
C        -4.11523596358053   -2.25781954827808    1.29414505917579
N        -1.16233631172910   -1.38564783960237    0.01663070826042
C        -1.11833593483794   -2.83267192547384   -0.10846992940069
C         0.04312496428522   -0.71501667236445    0.00865170809333
H         1.30752818637733   -2.46547623252963   -0.09166619502449
H         3.39525880893182   -1.25323641638819   -0.10175722713990
H         3.42725210093482    1.21790484525074   -0.01423351584722
H         1.29410970263407    2.45131885077316    0.09973684946696
H        -1.06433825006125    2.52357647033340    0.17491846638589
H        -3.24427177676859    1.42650993042654    0.23631698613695
H        -4.50223052314590   -0.70280929722558   -1.66939593358859
H        -6.70000599354386   -1.79450661312349   -1.51970366020027
H        -5.59997249635210   -3.47474963406052    2.25364683138874
H        -3.40005606728005   -2.38985752526154    2.09183805976029
H        -2.13463646075856   -3.21391886291978   -0.14885351610036
H        -0.60954019292597   -3.28294716209264    0.74596754674295
H        -0.60329157482681   -3.12254204800176   -1.02607572229391
