96
 energy: -139.742318162427 gnorm: 0.000197121931 xtb: 6.4.0 (f63f532)
N        -0.91991366865819   -2.03176734593444   -0.36851295078744
C        -2.17240953977865   -1.56579324350696   -0.52937546393458
C        -3.05232427989556   -2.16884156385049   -1.43746058719355
C        -2.63276788582252   -3.24564763294882   -2.18756299874495
C        -1.33122303742074   -3.71053874064867   -2.01640958346445
C        -0.52484005857415   -3.07116921684898   -1.09808480157021
H         0.48971385630407   -3.40124297030195   -0.92484691618400
H        -0.96021566793544   -4.55030766812807   -2.58105011169404
H        -4.05752386428340   -1.79976325758277   -1.55654708678248
C        -2.54208047011699   -0.41334127495679    0.28411801159470
N        -1.60269686609658    0.05033411975102    1.13602484586648
C        -1.89924253408670    1.09535317008074    1.90553876035493
C        -3.11713354080402    1.74351186847459    1.87500958758257
C        -4.09011252781930    1.28865129978135    0.98908746562785
C        -3.79521218530469    0.20437965517193    0.19089220411146
H        -4.53505751588291   -0.15881722760324   -0.50272843803015
H        -3.30430488765868    2.58161306088366    2.52657188622900
H        -1.10829845697665    1.42093474331110    2.56352268276314
Ir        0.42149999999992   -0.81650000000000    0.91329999999992
H         0.87260000000002   -2.23029999999978    1.54050000000000
B         0.40529488384079    0.60754349136462   -0.61035799631677
O        -0.23141599298442    0.31457430191226   -1.80273488340337
C        -0.31532795147877    1.49063035861587   -2.61505525823100
C        -0.05558394303476    1.12696441406352   -4.07469389576008
H         0.86483618409235    0.56061912041058   -4.17018493341941
H         0.00393066096711    2.02777303149398   -4.68003413123961
H        -0.87354859573832    0.51108489712677   -4.44098107476442
C        -1.74525231157894    2.03194223682797   -2.47395570152664
H        -1.89929899854107    2.90205985549409   -3.10505331315115
H        -2.44322668145707    1.25084439566417   -2.76908393126811
H        -1.94756412091794    2.28999116367027   -1.43617920592528
C         0.75383753262682    2.42915012162692   -1.96581868751275
O         0.85592804658833    1.90709508878237   -0.63345799003797
C         2.13823950730572    2.27179060424605   -2.60649057148062
H         2.43346455271237    1.22622886346527   -2.56157409064151
H         2.14505381625636    2.62924522135518   -3.63214032841453
H         2.85749672258466    2.84485672855514   -2.02615117299042
C         0.37513819421015    3.90806686739113   -1.92211630631161
H        -0.50885131545985    4.07188691961613   -1.31371429133390
H         1.19570337347444    4.47284863761572   -1.48618642198037
H         0.19465226995342    4.27483445375498   -2.92937963396195
B         1.56987715084268    0.64341875868840    1.86776538695046
O         2.93752510512352    0.78127697230990    1.87416190455992
C         3.30092646693457    2.05650179002695    2.42387220521099
C         4.55896991927491    1.91573258031650    3.27927938861639
H         4.44449445974783    1.13242967831419    4.02119545682972
H         5.39822647579607    1.65530310392681    2.63942405492215
H         4.77800012362316    2.85708825369235    3.77594097365085
C         3.59093535462594    2.97657901830716    1.23227762128123
H         3.86219663910208    3.97690055261630    1.55628650693725
H         4.41396563844664    2.55380870841525    0.66044011043234
H         2.71619659403656    3.00477427864214    0.58767847437143
C         2.01095174009364    2.47169547319563    3.20995218384882
O         0.99775775905358    1.65474387568641    2.60709476406800
C         1.61980245298535    3.94190533070505    3.07345478309404
H         1.38661983394005    4.18102888090142    2.04131535190085
H         0.73502362128212    4.13193482910004    3.67616838794411
H         2.42625513444512    4.57934589734123    3.42569099879283
C         2.06665070913238    2.09990996293518    4.69719278647759
H         2.30205529110530    1.04524119221820    4.80835511463437
H         2.80077403182590    2.70193357508136    5.22374747483533
H         1.08729199123826    2.27260185834462    5.13753970188141
B         2.27819999999934   -1.33089999999952    0.17409999999962
O         3.10225049743215   -2.29349633908208    0.71813391938994
C         4.38932635251848   -2.26435605578571    0.08764274086195
C         5.33152386802826   -1.54160064748249    1.05639757337128
H         4.91107979360610   -0.56916411418153    1.29631636625163
H         5.38772979177044   -2.11910071401579    1.97579278362542
H         6.32943988178307   -1.43869749426088    0.64191634936544
C         4.88290180469762   -3.69540270752101   -0.12567076159137
H         5.01531188598410   -4.16739988853542    0.84432454590697
H         5.83569534434401   -3.68865772247357   -0.64733552691434
H         4.16529976919585   -4.28235722940239   -0.68908723897105
C         4.11468831335934   -1.45199779279097   -1.22775054601906
O         2.86362456778819   -0.80310099805621   -0.95112905479655
C         5.16424284531705   -0.39087201519905   -1.55427479657763
H         6.14260751124585   -0.84902705200261   -1.66889950708816
H         4.89538602088254    0.10125119459929   -2.48554195146361
H         5.19727313201013    0.35979079037887   -0.77238295489848
C         3.90086667129317   -2.34177396203743   -2.45964167534135
H         3.12354452366504   -3.07528091727645   -2.26439796870802
H         3.57071617819698   -1.71678397617763   -3.28594885999233
H         4.82038564408482   -2.84492366960583   -2.74276401951571
H        -3.30036217227854   -3.71716890623704   -2.89255682342163
H        -5.05341189896963    1.77177970231601    0.92682476496684
C         0.23590000000181   -1.68139999999953    2.96030000000270
C        -1.04902182908915   -2.05549861766312    3.34702942899842
C         1.19724597820304   -1.53232648855147    3.95877149481045
C        -1.39349246015608   -2.17848276044017    4.68416265654011
H        -1.81149872248301   -2.25829647891146    2.60830019102559
C         0.87122601150909   -1.65744474480513    5.29838590223591
H         2.21689184266801   -1.31729961054403    3.67820872370779
C        -0.43035352848493   -1.96512148751354    5.64967467995658
H        -2.40290856920339   -2.44533004953806    4.96123067279110
H         1.62588055460565   -1.52346217058219    6.05936271838938
I        -0.94910234025833   -2.14464515445507    7.70603323974533
