94
 energy: -134.562351517528 gnorm: 0.000285404921 xtb: 6.4.1 (1a32961)
N        -0.94281208294531   -2.04368640156118   -0.34343957822290
C        -2.18829951979113   -1.56032939091953   -0.52453587460158
C        -3.06253478204242   -2.15089691267616   -1.44646707179071
C        -2.64726422082796   -3.23395462325860   -2.18889587560314
C        -1.35413205940627   -3.71724590162950   -1.99721603533049
C        -0.55232588128610   -3.08971944016742   -1.06771889856173
H         0.45416392484002   -3.43545866999465   -0.87777956936453
H        -0.98721676371305   -4.56294901518542   -2.55580600155659
H        -4.06007737157564   -1.76598259407615   -1.58074777050429
C        -2.55169820716638   -0.40612230944717    0.28614723312575
N        -1.60940691534114    0.04433363835146    1.14487639011915
C        -1.89679788062081    1.09155311721296    1.91616915338769
C        -3.10659437317830    1.75381764701902    1.88089948219670
C        -4.08217835977553    1.31202782636740    0.98964536765447
C        -3.79774732854073    0.22642542991246    0.18999310983353
H        -4.53895976193229   -0.12755509702789   -0.50723078362052
H        -3.28698027857371    2.59313572090681    2.53272474482237
H        -1.10436884219742    1.40411651591240    2.57848737515307
Ir        0.42150000000000   -0.81649999999992    0.91330000000007
H         0.87259999999996   -2.23030000000006    1.54050000000008
B         0.41787274572502    0.56920522752369   -0.64262903359746
O        -0.17008339627824    0.22234359840038   -1.84723863061995
C        -0.26235724398763    1.36791913978527   -2.69866598321524
C         0.07250487780269    0.96741016199989   -4.13360232395057
H         1.01779250455032    0.43615491939201   -4.17160358459373
H         0.12083108535572    1.84861699894472   -4.76818406684011
H        -0.70436390537564    0.30578691483202   -4.50955778493538
C        -1.71737805505008    1.85543560895722   -2.63706446257041
H        -1.87789810899888    2.70036447770289   -3.30015398455540
H        -2.36959237053738    1.03798907729314   -2.93888910841701
H        -1.97612229626991    2.13354562814708   -1.61726129354694
C         0.74316414201314    2.36763050152915   -2.03726979011646
O         0.82590624465991    1.88282763114732   -0.69077787567402
C         2.15303442359292    2.26075684651182   -2.63181835795990
H         2.49829024309328    1.23366301760002   -2.54147749396836
H         2.17362267294311    2.58366553766329   -3.66877988469696
H         2.82530441761379    2.88891379479229   -2.05191100084850
C         0.29733751402401    3.82876456289638   -2.04061809406461
H        -0.61493842246844    3.96499410484084   -1.46819361424984
H         1.07486833612689    4.43877135549255   -1.58711056615664
H         0.13852807857380    4.16636430673271   -3.06169566624417
B         1.57895406188937    0.63465236646903    1.86519974399392
O         2.94982259466103    0.73400968593111    1.91235870903318
C         3.32892656130631    2.02861897469551    2.40018852595303
C         4.55845563215452    1.90698157924168    3.29850728231636
H         4.40064244140541    1.16931509067245    4.07817663306485
H         5.40791844900619    1.58896789225174    2.69937921141835
H         4.78844795894588    2.86925282972507    3.74812635272766
C         3.67263545605170    2.87350949964945    1.16733657851145
H         3.96327794595556    3.88326410147006    1.44201674022106
H         4.49643439913344    2.39870823391460    0.63926406065945
H         2.81385351028283    2.88791592008128    0.50106257583832
C         2.02744236068905    2.51788530917750    3.12160909813285
O         1.01184024765168    1.70255949509449    2.52356901763956
C         1.68543415628057    3.99027400502950    2.89976848739599
H         1.48170643969758    4.17905287163265    1.85106255828289
H         0.79404997746287    4.23899382962191    3.47033661847125
H         2.50393741735427    4.62131404085519    3.23528686751864
C         2.02470902033395    2.21625243054597    4.62557352873708
H         2.21913367928321    1.16034797963756    4.79186049231318
H         2.76267863132340    2.81839313045649    5.14694000773955
H         1.03872934637331    2.44066151973864    5.02564609188164
B         2.27820000000045   -1.33090000000020    0.17409999999951
O         3.05842875183096   -2.37025576271181    0.63670836137701
C         4.35987936275626   -2.31687270943159    0.03898755856145
C         5.28784875891524   -1.67291240749191    1.07482190814168
H         4.87715064140575   -0.70887581693076    1.36208792674365
H         5.30652903494860   -2.30476497162096    1.95921020157285
H         6.29869930530032   -1.56478941717358    0.69378796722191
C         4.84255621103985   -3.73454135438480   -0.26548947967203
H         4.95289979738921   -4.27442355653543    0.67118363952971
H         5.80457765987352   -3.70108644824768   -0.76923253235398
H         4.12938713393942   -4.27189781509487   -0.88155523512054
C         4.12452285529101   -1.40894541537676   -1.21811780720291
O         2.90297580159368   -0.72845922011107   -0.89467884409701
C         5.22165125017157   -0.37878918435488   -1.47955688521802
H         6.17811113394064   -0.87397449065358   -1.62290874282983
H         4.97761221484363    0.18240896898110   -2.37819669266313
H         5.28832082316536    0.31904675058381   -0.65230679273006
C         3.87041373996706   -2.20923127592849   -2.50318031852983
H         3.06539541771110   -2.92227294128122   -2.34754494517600
H         3.56026834649842   -1.52062983231601   -3.28584855811876
H         4.76821826469793   -2.72844046592995   -2.82464380143674
H        -3.31060839431897   -3.69741025578810   -2.90331554832956
H        -5.03957944909773    1.80675809815803    0.92517545176952
C         0.23589999999937   -1.68140000000010    2.96030000000070
N        -1.00764270640686   -2.08161688668595    3.35880665985569
C         1.00629202926676   -1.58463694932958    4.09742895538462
C        -1.05447842983600   -2.18868961519135    4.71572800216169
H        -1.78422625228195   -2.25290272037361    2.74333791427452
C         0.18662694348028   -1.88297858120745    5.20513211713236
H         2.04563634538306   -1.32321125128091    4.12104624027742
H        -1.95501741059798   -2.46812887796808    5.22780549681246
H         0.48060349734780   -1.87914301968613    6.23773024580634
