13
 energy: -23.655546722469 gnorm: 0.000440151432 xtb: 6.4.1 (1a32961)
C        -1.12145766482497   -0.66727325473668    0.04769587283192
N        -0.00633078471620   -1.36546088833727   -0.13854708919697
C         1.12160450713640   -0.69549479432140   -0.21077424130211
Cl        2.55058842583515   -1.63489507374506   -0.45477464375977
C         1.19201965635273    0.70265091469350   -0.09887681330271
C         2.47144088068491    1.45625255707273   -0.17872705816793
N         0.06704928779869    1.37680217388021    0.08659628631129
C        -1.07946317158805    0.71236755697494    0.16010862922245
H        -2.03533557487443   -1.23920808268559    0.10366870249837
H         3.14620425411883    1.12648904628564    0.60923466258508
H         2.27101789976760    2.51772212316328   -0.07464152124116
H         2.95791393526233    1.26184289336194   -1.13291689163233
H        -1.96629165095302    1.30966482839372    0.31180410515384
