129
 energy: -190.371140748116 gnorm: 0.000303205758 xtb: 6.4.1 (1a32961)
N        -0.96509999999820   -2.11530000000362   -0.24089999999916
C        -2.24699999999577   -1.69840000000185   -0.36220000000068
C        -3.14039999999571   -2.36819999999786   -1.21199999999644
C        -2.70220000000517   -3.47560000000284   -1.93050000000666
C        -1.37780000000578   -3.89880000000255   -1.78760000000587
C        -0.54290000000466   -3.18669999999544   -0.93509999999724
H         0.49810000000066   -3.45630000000090   -0.78939999999947
H        -0.99569999999957   -4.76029999999700   -2.32769999999875
H        -4.16500000000196   -2.02889999999794   -1.31830000000029
C        -2.62129999999796   -0.50949999999495    0.44099999999677
N        -1.62600000000093    0.07329999999475    1.16020000000322
C        -1.89679999999937    1.15239999999787    1.91689999999126
C        -3.17230000000766    1.70329999999670    1.99650000000094
C        -4.20510000000023    1.11740000000307    1.26270000000473
C        -3.92609999999723    0.00250000001361    0.47819999999758
H        -4.71959999999816   -0.46420000000176   -0.09519999999738
H        -3.34629999999866    2.57509999999602    2.62069999999864
H        -1.04449999999776    1.57419999999982    2.43689999999986
Ir        0.42149999999975   -0.81650000000000    0.91329999999976
H         0.87260000000006   -2.23030000000016    1.54049999999976
B         0.50669999999848    0.41559999999725   -0.81540000000353
O         0.19500000000115   -0.04700000001333   -2.09149999999826
C         0.00650000000142    1.10039999999944   -2.95429999999979
C         0.49019999999720    0.74739999999786   -4.35780000000053
H         1.51610000000068    0.37379999999981   -4.33700000000009
H         0.44729999999993    1.62239999999588   -5.01670000000503
H        -0.14739999999763   -0.03390000000086   -4.78430000000133
C        -1.50120000000032    1.39559999997899   -2.96669999999391
H        -1.75370000000046    2.21459999999919   -3.64850000000173
H        -2.03200000000135    0.49449999999119   -3.28929999999994
H        -1.85170000000026    1.65210000000032   -1.96219999999345
C         0.84229999999711    2.20669999998723   -2.22040000000664
O         0.75199999999981    1.78259999999641   -0.83690000000854
C         2.32930000000136    2.18619999999640   -2.59899999999698
H         2.74129999999982    1.18499999999821   -2.45750000000009
H         2.48869999999972    2.51299999999809   -3.63179999999877
H         2.87200000000045    2.86270000000240   -1.93200000000195
C         0.28439999999796    3.62289999999637   -2.33659999999839
H        -0.72649999999990    3.69040000000025   -1.92909999999979
H         0.92129999999883    4.31479999999850   -1.77610000000326
H         0.26429999999971    3.94810000000071   -3.38320000000584
B         1.56299999999986    0.60960000000044    1.84840000000106
O         2.92780000000093    0.55230000000166    2.15020000000069
C         3.36330000000068    1.88659999999807    2.50259999999935
C         4.53140000000089    1.78590000000024    3.47740000000039
H         4.27909999999971    1.16090000000026    4.33690000000069
H         5.39390000000061    1.33789999999987    2.97339999999973
H         4.82390000000013    2.77869999999898    3.83820000000005
C         3.79699999999913    2.56849999999996    1.19670000000050
H         4.20020000000034    3.57090000000005    1.37680000000017
H         4.56740000000071    1.95560000000016    0.72109999999901
H         2.95240000000021    2.63259999999998    0.50539999999936
C         2.05040000000119    2.50090000000095    3.09319999999920
O         1.03749999999866    1.81619999999931    2.31910000000016
C         1.89100000000079    4.00449999999790    2.88650000000291
H         1.87290000000026    4.25440000000007    1.82410000000152
H         0.94939999999942    4.34259999999993    3.33169999999896
H         2.71079999999937    4.55150000000027    3.36630000000005
C         1.82469999999833    2.13199999999969    4.56520000000248
H         1.92610000000050    1.05330000000026    4.71319999999982
H         2.52609999999884    2.65280000000100    5.22539999999956
H         0.80630000000157    2.41580000000034    4.84900000000027
B         2.27820000000010   -1.33090000000047    0.17410000000010
O         2.89460000000232   -2.57739999999975    0.38449999999891
C         4.26930000000007   -2.48199999999728   -0.07210000000613
C         5.10899999999973   -2.05379999999644    1.14010000000222
H         4.76349999999955   -1.08739999999651    1.51750000000055
H         4.98050000000006   -2.79469999999589    1.93589999999614
H         6.17420000000038   -1.99289999999977    0.89299999999942
C         4.71949999999694   -3.84659999999397   -0.58469999999099
H         4.75280000000088   -4.56130000000310    0.24419999998810
H         5.72329999999951   -3.78369999999976   -1.02009999999861
H         4.03499999999443   -4.23599999999999   -1.34169999999645
C         4.16440000000135   -1.36219999999567   -1.16300000000757
O         3.08520000000367   -0.55030000000232   -0.65400000000124
C         5.40720000000281   -0.48870000000140   -1.31549999999991
H         6.27319999999908   -1.09009999999977   -1.61530000000116
H         5.23300000000074    0.26930000000200   -2.08589999999833
H         5.64270000000069    0.02649999999982   -0.38240000000130
C         3.71800000000518   -1.89830000001475   -2.53109999999400
H         2.82530000001120   -2.52159999999704   -2.42740000000069
H         3.46090000000060   -1.05250000000308   -3.17549999999552
H         4.50569999999329   -2.48290000000781   -3.01789999999728
H        -3.38500000000787   -4.00130000000959   -2.59309999999761
H        -5.21399999999915    1.52080000000455    1.29960000000141
C         0.23589999999794   -1.68139999999996    2.96030000000078
C        -0.99763801347305   -2.23620982416732    3.33214444441675
C         1.23371062425205   -1.56825763951017    3.92368723259090
C        -1.26751953945484   -2.66741640914868    4.61925007693556
H        -1.77336373283578   -2.36343515977553    2.58540525732577
C         0.96147047367772   -1.96763098970006    5.22948921755668
H         2.21512665169282   -1.20855358614812    3.65170622618148
C        -0.26417780793988   -2.55917696122065    5.59210035802711
H        -2.22879743867346   -3.10284559633225    4.85997926303261
N         1.77184642552221   -1.97446187339113    6.33458193877729
C        -0.14474265513769   -2.95918672633806    6.96183511694119
C         1.11036356058895   -2.58211764378410    7.36472500984046
H         2.71953120565857   -1.63603607011805    6.36603286627002
C        -1.12036891612631   -3.78549052705899    7.74117605280879
H         1.57635482497985   -2.70421249940080    8.32697944199493
C        -0.76394121195003   -5.27498683256352    7.59101433996426
H        -2.13823749465237   -3.63094049880668    7.37428644012639
H        -1.08395787216408   -3.52732920546370    8.80310415398577
N        -0.77337593020590   -5.64363826401796    6.18650977320186
C        -1.78164214925382   -6.14718683916434    8.32130680183130
H         0.22398483647520   -5.47363866548779    8.02583962436003
C        -0.87784718703780   -6.93288071815827    5.80470901136439
H        -0.71189202416070   -4.91229526566476    5.49195279096848
O        -2.94718488951507   -6.24888317697194    8.01174155778249
O        -1.23696541155309   -6.71931051250061    9.40134207626719
O        -0.95068715203816   -7.85956366933436    6.59398064445260
O        -0.87437971656662   -7.02012673680770    4.46308973013735
C        -2.07553291001714   -7.58536588074501   10.16647123378210
C        -0.92928252470596   -8.30321015676798    3.78087599000455
H        -1.49259557986805   -7.86200071993175   11.04400392416157
H        -2.32819290245735   -8.46771812550546    9.57359709053119
H        -2.99436147644155   -7.06731081266310   10.45012414148091
C        -2.22797715690851   -9.03795597349291    4.12371366634725
C        -0.90116090823919   -7.92303906964873    2.29523803319803
C         0.29620645691193   -9.14855597563319    4.14220957050234
H        -3.08753638286360   -8.40837494530135    3.88995971122854
H        -2.25420898489239   -9.28296783692728    5.18480386494919
H        -2.29105586038264   -9.95824471165457    3.54499073039557
H        -1.76261404529944   -7.30039812807456    2.05573224600438
H        -0.92604209919447   -8.82448142508563    1.68367140698065
H         0.00523905750192   -7.35955631590326    2.07346898589534
H         0.28502506540158   -9.39381931372341    5.20290945852049
H         1.20954054210111   -8.59674690562978    3.91688380822045
H         0.28525913336014  -10.07165453485038    3.56480287073647
