129
 energy: -190.384602146075 gnorm: 0.000291245152 xtb: 6.4.1 (1a32961)
N        -0.88680094177222   -2.02055747838890   -0.42133586696942
C        -2.14194713103219   -1.55683644161601   -0.57190189414580
C        -2.97040041900668   -2.03887037124720   -1.59311894033940
C        -2.50424218417500   -3.00711969963206   -2.45469418990849
C        -1.20814701863181   -3.48622714464483   -2.27937954828466
C        -0.44941592387823   -2.95909301245967   -1.25572227790536
H         0.56248752812980   -3.29750803029777   -1.08379071029400
H        -0.80345821902497   -4.24643093668785   -2.92762558701587
H        -3.96682049237037   -1.64865589415352   -1.72164399453550
C        -2.56438712973343   -0.52345001005942    0.36478081977895
N        -1.61715226798204   -0.03730176486675    1.19472882902669
C        -1.95682647818513    0.91201795611772    2.06346191110207
C        -3.23115302295714    1.43064764935779    2.16718770423716
C        -4.22129977103769    0.93583771866805    1.32184881956775
C        -3.87983814421647   -0.04492604263507    0.41627934126658
H        -4.63408795954816   -0.44783690292066   -0.23941423388807
H        -3.45063295711273    2.19455468141555    2.89544150083288
H        -1.15499758344765    1.26583677625723    2.69260179397514
Ir        0.42149999999978   -0.81650000000078    0.91330000000014
H         0.87260000000010   -2.23030000000028    1.54049999999992
B         0.33577670489274    0.64520677703155   -0.58270911026343
O        -0.37495615217191    0.39217244739817   -1.74528390437804
C        -0.55941777537371    1.60405155749446   -2.48190194375278
C        -0.42024743953625    1.32866733294693   -3.97692919230317
H         0.50341708347342    0.79987442343757   -4.18750960996777
H        -0.44157668576573    2.26288283764627   -4.53230801032430
H        -1.25000360120357    0.70597760325835   -4.30332794388585
C        -1.98577135760986    2.09333539901389   -2.18897197658361
H        -2.21744316745979    2.99291611116466   -2.75151046782779
H        -2.68691335806660    1.30925470352091   -2.46898832134478
H        -2.10334964718307    2.28484014854987   -1.12404851944609
C         0.53556729105850    2.53982691748400   -1.87486024088748
O         0.75828068094430    1.95693953095678   -0.58471269150971
C         1.86571463896123    2.45509845163087   -2.63378991377287
H         2.18351778792795    1.41620722948050   -2.68341157436846
H         1.78058112119385    2.87607280492615   -3.63147370574321
H         2.61998397602184    3.00750058768482   -2.07809353179205
C         0.12395854811326    4.00324233040737   -1.72550394136675
H        -0.70362193273220    4.10987999943678   -1.03084377259935
H         0.96598336966847    4.57356280562740   -1.34048108294765
H        -0.16018280505300    4.41019775275973   -2.69272518744318
B         1.52892342429950    0.68667985765548    1.84603769123300
O         2.88632952377212    0.90583792281228    1.80724062757173
C         3.19807257750283    2.18350844994967    2.38166209035679
C         4.48676836523864    2.08707097266014    3.19711533826988
H         4.43560665793368    1.27627449395129    3.91543997750683
H         5.31926752892908    1.89179092398745    2.52616545920852
H         4.66912112994014    3.02392777054086    3.71663899164102
C         3.40668423467174    3.15201333160883    1.21166932797062
H         3.63123590775801    4.15598205308449    1.55939954954828
H         4.23668393296095    2.79253364333576    0.60733008151855
H         2.51529236966309    3.15097111195813    0.59006991498838
C         1.91220658363590    2.50772174636435    3.21628338247304
O         0.92667308168302    1.65534537577351    2.61999138260729
C         1.44203487364024    3.95893006988656    3.13682243773847
H         1.16838334844796    4.21733603715840    2.11939444842284
H         0.56526035885633    4.08346470489089    3.76761158220708
H         2.22357232433317    4.62755026825668    3.48769502285255
C         2.03201679736170    2.09520743049708    4.68944547519502
H         2.32031801132821    1.05038964417272    4.75544008379455
H         2.75176351400822    2.71678435633698    5.21315721866766
H         1.05884256751467    2.20317364157571    5.16244627212053
B         2.27819999999972   -1.33090000000132    0.17409999999825
O         3.20846052641304   -2.14945974208925    0.77817254408692
C         4.45393794047624   -2.09993376604704    0.07141801865600
C         5.38575517917313   -1.19845819957022    0.88881336195653
H         4.89691250261538   -0.24193874923237    1.04889511275720
H         5.54561480286715   -1.65996546076788    1.85988876554939
H         6.34474940323888   -1.06518959017244    0.39797304742904
C         5.05139804874105   -3.50548295050853   -0.00443951272797
H         5.27119716467989   -3.84644809904818    1.00380726131430
H         5.97240094732727   -3.48943626397791   -0.58044732991480
H         4.35586265725366   -4.20798210068637   -0.45110964013609
C         4.04854010237286   -1.47547784056558   -1.31179321555602
O         2.76060035279522   -0.90347681756419   -1.04252640742540
C         4.98095366517858   -0.37464976724306   -1.81631991318467
H         5.99053203847227   -0.75692704267219   -1.93857170632108
H         4.62122719555694   -0.01978475996666   -2.77898911049546
H         4.98334902866211    0.46285573072963   -1.12718241378244
C         3.86223852405158   -2.52000978508830   -2.42078446919528
H         3.16614931756302   -3.29004436920564   -2.10030118067636
H         3.43964616585053   -2.02842347542708   -3.29373119144905
H         4.81066353711690   -2.97250413167963   -2.69408798396606
H        -3.13049079599626   -3.38280196261294   -3.24970929614598
H        -5.23353660807769    1.30739052188526    1.37495358767529
C         0.23589999999847   -1.68139999999595    2.96030000000451
C        -1.01761894662714   -2.21650525159240    3.31074762751813
C         1.20425339060600   -1.52764041012536    3.93986346606050
C        -1.33612056003069   -2.56678904089709    4.60362400822515
H        -1.75815343787577   -2.38571407889176    2.54096700604082
C         0.88648755161519   -1.85918221285156    5.25213139461124
H         2.19251868915225   -1.18674316630495    3.67394015982731
C        -0.37019787765029   -2.41041432224350    5.60116616163412
H        -2.30928996138755   -2.97894360915001    4.83508360178160
N         1.64689799453919   -1.82206177086332    6.38707442531283
C        -0.31191845980512   -2.72670958709901    6.99535715239065
C         0.93059054367123   -2.35154863746449    7.42362664981590
H         2.59594260406658   -1.49605919788727    6.44388279952892
C        -1.35918713399296   -3.45290138535478    7.77385781103223
H         1.35482030364291   -2.42256372347102    8.40635543098199
C        -1.10872496297012   -4.97372696680621    7.71730151406352
H        -2.34786402997275   -3.25261783236554    7.35808486388389
H        -1.34738356977825   -3.14451838141855    8.81983540560584
N        -1.01559489627285   -5.41249102536705    6.34279498434303
C        -2.26619931918271   -5.71657898201800    8.38066270128393
H        -0.18739104754209   -5.22650087837654    8.25835189055779
C        -1.20074925643511   -6.70029290844372    6.00571686314312
H        -0.83739702977371   -4.72445527155592    5.62380880957228
O        -3.39586761140259   -5.72679349206788    7.95324478162440
O        -1.89112539800706   -6.27064783965236    9.52389855143963
O        -1.42577892970069   -7.57698567535220    6.82182233764159
O        -1.08593515583178   -6.85336681628108    4.68141330597901
C        -2.87711742815321   -7.01578148668279   10.24132656147105
C        -1.18787958512809   -8.15992029716514    4.04785667464481
H        -2.43388809878163   -7.24101523297012   11.20723095953704
H        -3.10748465844925   -7.93227235350756    9.69615668902983
H        -3.78797983486522   -6.42473212397485   10.35136321866140
C        -2.56852653984263   -8.76681846474602    4.29484306082387
C        -0.99155211732316   -7.85721016772189    2.56107516548824
C        -0.07959115889391   -9.08066153579066    4.55862977052529
H        -3.34317358363474   -8.07834469660681    3.96435320531111
H        -2.70930113352272   -8.96512296189977    5.35409872805724
H        -2.66152042619264   -9.69840564583605    3.74443982904717
H        -1.77624296649286   -7.19274875962678    2.21043377082123
H        -1.02258646443681   -8.78039721080438    1.99123943985260
H        -0.03308397485836   -7.36988714511044    2.40599109346734
H        -0.20531277352978   -9.26595411185036    5.62233187204468
H         0.89232966569375   -8.62085638451566    4.39390142971886
H        -0.11986509441279  -10.02758885444578    4.02859746164699
