10
 energy: -21.924647037757 gnorm: 0.000400474325 xtb: 6.4.1 (1a32961)
S         1.30679039511013   -0.91272477809462    0.00661570165852
C        -0.40828604372622   -1.21459241150117    0.00650838961976
C        -0.90180554679210   -2.52044342476555    0.01019900150602
N        -1.31472360257822   -3.59251680132585    0.01313732666586
C        -1.13673638983501   -0.04988769911965    0.00267443572515
C        -0.33052190751578    1.09889036178200   -0.00005476584529
C         0.99947660836392    0.78870936374768    0.00156747627201
Br        2.43252549553558    2.00934573478474   -0.00142036886187
H        -2.21121779355849   -0.03106094025692    0.00185818066937
H        -0.70725121500382    2.10479059474934   -0.00328537740954
