101
 energy: -147.432809944968 gnorm: 0.000264715292 xtb: 6.4.1 (1a32961)
N        -0.93593351166846   -2.01495487548324   -0.36598366808855
C        -2.16465294052577   -1.50237251248852   -0.56142136037617
C        -3.05416664314768   -2.09395920630671   -1.46643985021769
C        -2.66987729226296   -3.21079368576631   -2.17573877711469
C        -1.39236719753565   -3.72420846490172   -1.96930154743040
C        -0.57371153043370   -3.09072612341320   -1.05770519445914
H         0.42348239076558   -3.45793983498326   -0.85857860002104
H        -1.04895208415486   -4.59689153157256   -2.50074917163287
H        -4.04173580622040   -1.68817343364692   -1.61045558925935
C        -2.50403909548501   -0.32088848745184    0.22286017634653
N        -1.57507279344367    0.10437585696353    1.10623895597858
C        -1.85648967785271    1.15852594772655    1.86908978736986
C        -3.04351109448972    1.85844409127468    1.79536340664983
C        -3.99779699393790    1.45211850524402    0.86710556863664
C        -3.72037989911287    0.35565981951135    0.07882329935501
H        -4.44622180213877    0.02742948765842   -0.64625250716120
H        -3.21976203757971    2.70004639869973    2.44560376735190
H        -1.07915711871568    1.44979738818982    2.55868989500044
Ir        0.42150000000000   -0.81650000000004    0.91330000000003
H         0.87260000000004   -2.23030000000001    1.54049999999994
B         0.44109160260540    0.57915462899938   -0.64019356123852
O        -0.16287164479476    0.25292209145270   -1.83988289095966
C        -0.21245888093239    1.39968379074740   -2.69550091210749
C         0.10427370119671    0.98106698709837   -4.12924176337130
H         1.02774811361165    0.41294317002790   -4.16671638117979
H         0.18625965123606    1.85759958946398   -4.76672562601537
H        -0.69870070798145    0.34942439173265   -4.50160030083234
C        -1.64621960424752    1.94539427443789   -2.63415955696994
H        -1.77146173409557    2.79400376428388   -3.30005476900083
H        -2.33136884193682    1.15457844506531   -2.93335515958895
H        -1.89318056629531    2.23751635610235   -1.61544756510459
C         0.83307396984593    2.36050527353780   -2.03891819918885
O         0.89799013931022    1.87591904203262   -0.68966257076471
C         2.23635280771053    2.19420988902128   -2.63460980468938
H         2.53931746881868    1.15429697105057   -2.54059306705957
H         2.26807034928375    2.51202983704433   -3.67272297455237
H         2.93438230639399    2.79687863030538   -2.05836215544179
C         0.44670505829058    3.83819776692384   -2.04572148864193
H        -0.45892605202994    4.01271033896028   -1.47327532899282
H         1.24887669075167    4.41764147645657   -1.59502552776768
H         0.30091577759941    4.17875784389926   -3.06763168967334
B         1.58848389939337    0.64678385515464    1.84257308325575
O         2.96087608404034    0.74113121604011    1.87035159260868
C         3.35715719294503    2.02630332184754    2.37023555060090
C         4.58752025396614    1.87865110797412    3.26424032862423
H         4.42165854554773    1.13936895308865    4.04075654813199
H         5.42978169921557    1.55097502588703    2.66016738956991
H         4.83471322078025    2.83440482972490    3.71833865778832
C         3.71183826175142    2.87774602828335    1.14546446990496
H         4.01016524267253    3.88260177533274    1.42918183872509
H         4.53376248679724    2.40004460018874    0.61693281072285
H         2.85559234724049    2.90490808926625    0.47659243426852
C         2.06411974953149    2.52503875398129    3.10206284072860
O         1.03743736468252    1.70798553343101    2.52314160720458
C         1.72275327153343    3.99589435387648    2.87001498059389
H         1.51571934248941    4.17700350939364    1.82062971897238
H         0.83298977639184    4.24870744075193    3.44131854657478
H         2.54235741198447    4.62899170610424    3.19857624729445
C         2.07510823301751    2.23895728110060    4.60917112412678
H         2.26492699703582    1.18402142234328    4.78635738764084
H         2.82171861949582    2.84254135405733    5.11612959227574
H         1.09469426473962    2.47404203402940    5.01705901494276
B         2.27819999999893   -1.33089999999983    0.17409999999974
O         3.07277612303354   -2.32962907471150    0.69946483218796
C         4.36360777816390   -2.32123948274311    0.07670488932682
C         5.31501758338766   -1.62707051482724    1.05727896432574
H         4.91698363930602   -0.64522199964567    1.29728262257160
H         5.34647143996578   -2.20912134787163    1.97499722435884
H         6.31918320958609   -1.54824163197351    0.65256604893094
C         4.82941559744104   -3.75914820142864   -0.15082932093138
H         4.95204436637679   -4.24357114779084    0.81432402085969
H         5.78242083242978   -3.76521444198042   -0.67229966459134
H         4.10064659010302   -4.32583377939306   -0.72065768551590
C         4.11112983674325   -1.48880381947750   -1.22891545393878
O         2.88808767760971   -0.79463592329384   -0.93571196327877
C         5.20171448041654   -0.47135369227536   -1.55859063750593
H         6.15927768669772   -0.97076398178862   -1.67710999984405
H         4.95118247249409    0.03315969627199   -2.48832001913225
H         5.27022664387330    0.27576157626022   -0.77566265234728
C         3.84887473610935   -2.36276649630057   -2.46300236820298
H         3.04336505447943   -3.06366250193573   -2.26151611467916
H         3.53615837747546   -1.72101558220091   -3.28331208616089
H         4.74373753240100   -2.90230285509783   -2.75795033917126
H        -3.34709056212641   -3.67697109278890   -2.87518240218373
H        -4.93390099522825    1.98024416663816    0.76587587426738
C         0.23589999999927   -1.68139999999866    2.96029999999891
C        -1.00177840648511   -2.11620768315166    3.42536085659153
C         1.20414074982608   -1.46356666478528    3.93866136863915
C        -1.30189412840576   -2.21569997168076    4.80520591194587
S        -2.40061233390161   -2.63934164873039    2.51612257132256
C         0.92736765537076   -1.56015696809551    5.29877048890417
H         2.20289716226581   -1.21177345598577    3.61731624341005
N        -2.56702670867875   -2.65015224694378    5.09316485368503
C        -0.32698736591987   -1.91724721938594    5.75022917916208
C        -3.24869841591034   -2.91329151516380    4.04696549719126
H         1.71072633666818   -1.36000704294903    6.01548051015536
H        -0.56159812943200   -1.99571848840298    6.79956281260506
C        -4.64378483789654   -3.41012608788775    4.04776216576145
H        -5.29822359582220   -2.69073292641778    3.55776062943227
H        -4.97057987806303   -3.55811511425594    5.07315982706001
H        -4.70667899388160   -4.34999216333443    3.50208668154477
