111
 energy: -157.926165194475 gnorm: 0.000338617298 xtb: 6.4.0 (f63f532)
N        -0.90163491157479   -2.03666892657384   -0.37213947046699
C        -2.17291917705137   -1.61042570787614   -0.49458133828226
C        -3.07515846113985   -2.27362358715217   -1.33753775855765
C        -2.65723365936823   -3.36250766264776   -2.06992648880503
C        -1.33391945766683   -3.78037378779079   -1.94609489544645
C        -0.50823801486449   -3.08804682410703   -1.08585259011152
H         0.52265570804335   -3.38244136644878   -0.94810148833224
H        -0.96230503686871   -4.62646211043428   -2.50078577151782
H        -4.09737041202479   -1.94233550681124   -1.41620196480108
C        -2.54025220058017   -0.43899208445360    0.28976135882266
N        -1.59737581177772    0.05147991518947    1.12364761934763
C        -1.89766190135145    1.11321963621438    1.86968448966025
C        -3.12031091333462    1.75094971855301    1.83286202629927
C        -4.09484847634098    1.27139101781997    0.96096217426337
C        -3.79633364386881    0.17209455713234    0.18602507635561
H        -4.53434190812499   -0.20829792189481   -0.50046458682262
H        -3.31013612026628    2.60090425593369    2.46808960137071
H        -1.10561865867654    1.46034092925260    2.51514653826542
Ir        0.42149999999780   -0.81650000000043    0.91330000000079
H         0.87259999999975   -2.23030000000012    1.54050000000060
B         0.40032374707140    0.63239603317805   -0.59459899015576
O        -0.32156087107177    0.38916873709769   -1.74941688694523
C        -0.40238856487440    1.58140729520534   -2.53793542436108
C        -0.25153966910803    1.23097772735191   -4.01619072610030
H         0.63312866233447    0.62415486221453   -4.17886359408173
H        -0.18793218697746    2.13816242267306   -4.61143611493996
H        -1.11909591751190    0.65983174222017   -4.33832069670390
C        -1.79493589905514    2.18332093197463   -2.29974039825683
H        -1.94876627619594    3.07096513114063   -2.90625202343183
H        -2.54532331286827    1.44003052747153   -2.56253717860079
H        -1.92096197148647    2.43068697071813   -1.24748719541792
C         0.74687587836378    2.46095468513257   -1.94446330570893
O         0.91716585559485    1.90635417937924   -0.63279763579576
C         2.07746326721468    2.26484815590876   -2.68119176868119
H         2.33294806163185    1.20796750488988   -2.67991793180079
H         2.02939531726978    2.64613235327756   -3.69706571484260
H         2.85698204940983    2.79551375071333   -2.13945314728770
C         0.43309475473340    3.95235404094466   -1.84377478800298
H        -0.39755397192925    4.13550751664914   -1.16920086664979
H         1.30518564526993    4.47414125491305   -1.45686282932048
H         0.19575188396653    4.34978072274022   -2.82735378559070
B         1.55925480045392    0.64413970577597    1.87509746515477
O         2.92916366541191    0.73359837964804    1.94039447966877
C         3.31672639262440    2.02064365522585    2.44188293325707
C         4.51992340306291    1.87146548144789    3.37134385147995
H         4.32541578671948    1.13273407210288    4.14161750873777
H         5.37830452291335    1.53842700480558    2.79360681274541
H         4.75699949647437    2.82603531441675    3.83323779868197
C         3.70839312930184    2.86347212104239    1.22234483332849
H         3.99952031994666    3.86977135265513    1.50832672987768
H         4.54579989050235    2.38201688584233    0.72221687858395
H         2.87234890229193    2.88749628507212    0.52801192846430
C         2.00597638951509    2.52806090075812    3.13422254200656
O         0.99226983956085    1.71796568358928    2.52465289770034
C         1.68385810680720    4.00220820594557    2.89887876551433
H         1.51149466502940    4.18965885179101    1.84434863496657
H         0.77951679190955    4.26120375431646    3.44405392166890
H         2.49880040884858    4.62610878762924    3.25553489129068
C         1.96856659818585    2.22978122668290    4.63769428966522
H         2.14208230170484    1.16914564833185    4.80134729951145
H         2.70555081248009    2.81756118326618    5.17640939210166
H         0.97848302819669    2.46798599474640    5.01993331019263
B         2.27819999999772   -1.33090000000563    0.17410000000346
O         3.14801279283890   -2.24169172237235    0.73352868321839
C         4.40591635577662   -2.21850570796321    0.04578322424796
C         5.36945852171235   -1.41081560873741    0.92180662615474
H         4.92929997564220   -0.43869675713978    1.12410099840356
H         5.48795914114236   -1.92796550564430    1.87057831747296
H         6.34256017115374   -1.30469481364021    0.45258816134192
C         4.93222124423666   -3.64607165242614   -0.10226457019376
H         5.13001601879908   -4.05019299550206    0.88698514381077
H         5.85565916637149   -3.64612553657760   -0.67456249958504
H         4.20492627570914   -4.28844455632275   -0.58731629248366
C         4.05114373706115   -1.49833334736641   -1.30302550288139
O         2.80460163608385   -0.85131087721906   -1.00305257778684
C         5.06448186725581   -0.44797421021819   -1.75456928507952
H         6.04377120210367   -0.89960017977929   -1.88661308008182
H         4.74192508174913   -0.02646910019312   -2.70328290271809
H         5.12394382443617    0.35658538038898   -1.02981704881375
C         3.78920012982866   -2.47204933745946   -2.46010146879476
H         3.04270805929919   -3.20730457874640   -2.17236300765500
H         3.39756729384016   -1.91065720890827   -3.30511270720782
H         4.70306176624756   -2.97438973819311   -2.76213903987202
H        -3.34156769912325   -3.88009906173649   -2.72475211596046
H        -5.06083529399579    1.74807722443066    0.89175512629432
C         0.23590000000683   -1.68139999999488    2.96029999999274
C        -1.04865079025711   -1.95980454730052    3.42458598564081
C         1.26110942359381   -1.73635364137620    3.90626723172458
C        -1.23854854511987   -2.18293971086238    4.77992328105141
H        -1.90039256935202   -2.01151912424547    2.76263648913055
C         0.98381450266297   -2.04996420782125    5.23122179940018
H         2.28111661814934   -1.57697172918863    3.59132548379325
N        -0.26030433926700   -2.24418916210874    5.66576524426955
H        -2.23255869196988   -2.35667672720737    5.17713198678797
C         2.08660265952278   -2.23724177647812    6.23511742404211
C         2.23941342109311   -1.02661255965108    7.17259784434554
H         3.02757837797887   -2.40510613443014    5.70888874176848
H         1.86082550313434   -3.11702793197032    6.84034916186602
C         3.39326197207262   -1.25007666277933    8.10702071879785
H         1.31094554803213   -0.89504564600458    7.72916673555797
H         2.41328302296962   -0.13181273922301    6.57267555919070
C         4.68283600846210   -0.89396602827925    7.73013140418811
C         3.20554597487404   -1.86621738607260    9.33809491022941
C         5.75954782545962   -1.14587894378479    8.56183631299312
H         4.84351649846690   -0.41651020546269    6.77387580792532
C         4.28003089060260   -2.11859890021555   10.17334275198214
H         2.20808185635150   -2.14954151946245    9.64273532427135
C         5.56079060949839   -1.75981664741489    9.78718807753133
H         6.75609050805006   -0.86417907085826    8.25314422449964
H         4.11835386040807   -2.59748927664836   11.12850913192295
H         6.40014856525339   -1.95818086108438   10.43779412847199
