93
 energy: -134.367996383945 gnorm: 0.000227346425 xtb: 6.4.1 (1a32961)
N        -0.91267116802119   -2.04219022211443   -0.34941854083244
C        -2.16645773731177   -1.58040691812144   -0.51581107017187
C        -3.05277593211832   -2.20873640280777   -1.40039567128034
C        -2.64010037680343   -3.30864203524334   -2.11973979469733
C        -1.33779350513382   -3.77017880656408   -1.94239758554752
C        -0.52416060091036   -3.10419081410729   -1.05029077077252
H         0.49138593872809   -3.43029415476627   -0.87473951363266
H        -0.97161549079498   -4.62764654542224   -2.48321176037449
H        -4.05835659294731   -1.84163324541439   -1.52297581059598
C        -2.53059256041496   -0.40898088003884    0.27098902501391
N        -1.58849062325576    0.06732162854352    1.11349489323730
C        -1.88195604527931    1.12682758347101    1.86462924174576
C        -3.09865740186812    1.77649104576028    1.82467148385404
C        -4.07313228023832    1.31020887990801    0.94612963530054
C        -3.78145320041585    0.21194930403196    0.16629460109408
H        -4.52133299785733   -0.16016906752336   -0.52271290373723
H        -3.28343404914919    2.62556601390195    2.46247579736665
H        -1.08944936968037    1.46258266669173    2.51558809618242
Ir        0.42149999999997   -0.81649999999988    0.91329999999996
H         0.87260000000006   -2.23029999999996    1.54049999999995
B         0.44082213463994    0.57379059347206   -0.63816554446846
O        -0.13864455560837    0.23679361856070   -1.84725206485669
C        -0.21009895112218    1.38714921441795   -2.69601656976317
C         0.13535970221113    0.98792580755180   -4.12869546919988
H         1.07348967902852    0.44366674190070   -4.15808181297829
H         0.20341386507977    1.87114829527168   -4.75854079045674
H        -0.64615465290704    0.33905403313690   -4.51680058564052
C        -1.65989437633909    1.89034577992726   -2.64627857047503
H        -1.80422394546970    2.73988705340465   -3.30713404005823
H        -2.31844463390605    1.08174395102618   -2.95776815121535
H        -1.92532982429462    2.16691894456645   -1.62776749532495
C         0.80012055623050    2.37319214260270   -2.02102715299580
O         0.86423118163294    1.88205818334408   -0.67471038879693
C         2.21458446979709    2.25213458382823   -2.60127682707050
H         2.54633595605680    1.22057933070572   -2.51245341023922
H         2.24990056363934    2.57986694486686   -3.63623403822488
H         2.88790571294996    2.86938788823892   -2.01111532040401
C         0.37074957448839    3.83907287231319   -2.02302456715235
H        -0.54510990639414    3.98357366676595   -1.45845808881837
H         1.15104129142381    4.43891485078391   -1.56085966165822
H         0.22492433172318    4.18162608616879   -3.04431637652587
B         1.57577959466506    0.62968781286122    1.88604608779985
O         2.94845058943786    0.71451405467212    1.94691387819898
C         3.33757475809033    2.00048284725645    2.44979776906146
C         4.56094935338917    1.85818158319043    3.35364581858619
H         4.39222884598580    1.11683512544858    4.12770512678552
H         5.41030518605048    1.53629296036749    2.75642666059981
H         4.79853367642116    2.81455305586509    3.81170420763882
C         3.69658948291129    2.85350772303554    1.22719975788818
H         3.99525410629544    3.85766896745228    1.51326071030141
H         4.51924491556623    2.37563574395873    0.70010624533366
H         2.84245224653521    2.88257177468772    0.55535585357766
C         2.03725890676727    2.49506087096323    3.16944105430761
O         1.01693699982296    1.69255352409820    2.56067917803078
C         1.70932667369645    3.97200724929126    2.95810875651642
H         1.51282189988158    4.17185151867411    1.91008558834701
H         0.81754561833902    4.22466627840121    3.52642124397730
H         2.53207748226263    4.59225533394935    3.30320099394853
C         2.02511955322861    2.18318274370574    4.67156429035257
H         2.21257784000211    1.12516770891865    4.83482178345960
H         2.76441051748103    2.77780467955482    5.19951011197210
H         1.03901880796400    2.41309352595125    5.06823587805965
B         2.27819999999909   -1.33090000000001    0.17410000000066
O         3.05821518377190   -2.36300867546320    0.65736197084388
C         4.36213270567482   -2.32174699593743    0.06395276110880
C         5.28923122261316   -1.67370680481333    1.09834758361212
H         4.88267030459253   -0.70526860637994    1.37655008251586
H         5.30295132448009   -2.29921514057051    1.98757014530609
H         6.30182163801843   -1.57302464191212    0.72022738095911
C         4.83826462624444   -3.74498511354001   -0.22471264103802
H         4.94127399523412   -4.27707040800781    0.71735900541039
H         5.80284027424564   -3.72185769296381   -0.72401141191255
H         4.12496310491010   -4.28426155960601   -0.83897686766699
C         4.13580791979115   -1.42499820535324   -1.20287440251566
O         2.91096249350931   -0.74141413194793   -0.89566335452412
C         5.23493900932918   -0.39686134790645   -1.46394240771580
H         6.19286902816883   -0.89323247007642   -1.59223722180969
H         5.00039383354315    0.15462891164434   -2.37098753574192
H         5.29320751078453    0.30991433712541   -0.64359585122016
C         3.89184315587991   -2.23612299039597   -2.48276819773484
H         3.08344637634322   -2.94571974927132   -2.32880440870035
H         3.59122893372480   -1.55362659119170   -3.27433696422349
H         4.79127592410828   -2.76049200250481   -2.79083324385119
H        -3.31290932171081   -3.80101616860676   -2.80526097576095
H        -5.03492788589325    1.79527739397224    0.87557916449250
C         0.23590000000031   -1.68139999999938    2.96029999999943
C        -0.99306101409315   -2.00177176850043    3.43541699561240
C         1.18766330871818   -1.57495911573283    4.01583439605105
S        -1.03419106152687   -2.11460121155280    5.16891457767967
H        -1.90674817818103   -2.18681025708732    2.90557225841957
C         0.65220729302701   -1.76561711596072    5.24499981428169
H         2.22669218092578   -1.36572962983278    3.83575794221461
H         1.13098737316086   -1.73158340811522    6.20418106247490
