107
 energy: -152.620485870028 gnorm: 0.000621745294 xtb: 6.4.0 (f63f532)
N        -1.03490088363835   -1.95991440489419   -0.36470922954725
C        -2.23119189476788   -1.36950933369427   -0.56080083262140
C        -3.19687687343430   -1.96010724114448   -1.38537201072183
C        -2.91488563621528   -3.14163257307027   -2.03547912802001
C        -1.66083443058100   -3.72076552105707   -1.85228288013960
C        -0.76945013115002   -3.09386409237004   -1.00695183149108
H         0.20665275045589   -3.51710698441745   -0.81580551053451
H        -1.39392398053965   -4.64093844248145   -2.34594131933098
H        -4.16652948751183   -1.50468307934453   -1.50073121596857
C        -2.45042557705260   -0.10818807550356    0.13223367018440
N        -1.50364735676898    0.26579410475678    1.02032506195206
C        -1.66350897234439    1.42411398118826    1.66105647851698
C        -2.72430515361737    2.27709481662259    1.44560859728476
C        -3.69610442086388    1.91203008088822    0.51887486587882
C        -3.55332655882383    0.70902654687823   -0.13649368390889
H        -4.28922905788540    0.41163324703248   -0.86476189591745
H        -2.79770507887294    3.20189765213815    1.99456315685349
H        -0.88469302675778    1.67399612454763    2.36406766106414
Ir        0.42149999999929   -0.81649999999974    0.91329999999924
H         0.87259999999993   -2.23029999999994    1.54049999999987
B         0.48824937082887    0.55221937164581   -0.67082035047283
O        -0.12220795132305    0.21418400322668   -1.86164674207476
C        -0.09507126384208    1.32151675487572   -2.76792874350661
C         0.24146124600026    0.81770796937413   -4.16998312879286
H         1.13980872655947    0.20965201770406   -4.15160304084245
H         0.37764891172495    1.65552053834632   -4.84892624645898
H        -0.57835404542129    0.20194676234657   -4.53238051222884
C        -1.50165904239988    1.93611698412557   -2.78038784502789
H        -1.56437113984112    2.75290881259105   -3.49333721128751
H        -2.21631735227775    1.16475328251000   -3.06090130617118
H        -1.76631135756250    2.29403528641471   -1.78776690387961
C         0.97701893011665    2.26435259522237   -2.12614498052573
O         1.00597696001239    1.82428878560370   -0.76014159603782
C         2.37977053769350    2.02889043132445   -2.69904173154829
H         2.64761138632053    0.98502290118223   -2.55782694352297
H         2.42895089274874    2.29954513490387   -3.74968055783328
H         3.09299859283573    2.63494552552586   -2.14559147539947
C         0.64656180567706    3.75449699237032   -2.18542296819391
H        -0.26177867068452    3.98101206372051   -1.63575161930895
H         1.46242742604414    4.31720378469027   -1.73785031978895
H         0.53212402842299    4.06811026651978   -3.21981724685602
B         1.67502414988402    0.62303143859906    1.77765651310609
O         3.04666092270140    0.68153248591036    1.69867526769825
C         3.52377358060672    1.94386439951403    2.18335497701576
C         4.79667584000558    1.73710533430907    3.00384301184101
H         4.64482973893366    0.99625708039274    3.78145694473641
H         5.58891374954039    1.38206812697183    2.34969192015724
H         5.10887447928704    2.67698622682446    3.45089092416251
C         3.84714563426945    2.79045183288393    0.94655180801005
H         4.20458695828208    3.77900752901086    1.21900302009451
H         4.61790204288450    2.28177803744241    0.37143718384039
H         2.95837403663701    2.86133225507833    0.32542338525081
C         2.29672041589451    2.48681825205105    2.99450403218003
O         1.20724285954611    1.69792432034022    2.49524713395416
C         1.98708581123540    3.96585441718851    2.76917533541902
H         1.71623856183597    4.14441270549495    1.73386147407933
H         1.14673729581497    4.25330874818936    3.39599549242426
H         2.84691273261994    4.57480477524630    3.03444614037338
C         2.39879006689568    2.21360374169083    4.50017196272620
H         2.56417174246890    1.15439965443839    4.67549797398525
H         3.19781908471050    2.79533527044176    4.94951351457923
H         1.45606833733248    2.48628598755215    4.96856415789609
B         2.27819999999916   -1.33090000000284    0.17409999999878
O         3.12330519029417   -2.24287170497434    0.77089191944865
C         4.33352885540761   -2.37678090835026    0.01526043340906
C         5.40571468912916   -1.55780856547552    0.74025763394884
H         5.05759312896579   -0.53425990675863    0.83953809426684
H         5.53307097976588   -1.96645760035507    1.73947402769086
H         6.35654337301412   -1.59267283767225    0.21734782119005
C         4.75157223979147   -3.84685700586097   -0.01630017946849
H         5.00397175538333   -4.16067786498327    0.99301264772141
H         5.62156563973600   -3.97526666326773   -0.65420558137053
H         3.94461110728156   -4.47881799598906   -0.37149393313351
C         3.93541213689613   -1.77036496037354   -1.37445835063910
O         2.78323150764022   -0.97271897741081   -1.05645142529032
C         5.00678397538676   -0.89652966360240   -2.02304529992724
H         5.92350973306273   -1.46511055624584   -2.15327855868073
H         4.65948192698333   -0.56666496310492   -2.99912475969214
H         5.20309494755589   -0.01862741286815   -1.41718661230911
C         3.47647145217123   -2.83297085201329   -2.38300074293708
H         2.70113507823122   -3.45432574254391   -1.94343128798003
H         3.05073304318317   -2.33046538968163   -3.24841428135087
H         4.30809646893998   -3.45194481372222   -2.70552245427944
H        -3.65262511968142   -3.60879523629512   -2.67036456308084
H        -4.54107209223654    2.55264447850938    0.31666651309058
C         0.23589999999485   -1.68139999999873    2.96029999999732
C        -0.96747637953501   -2.11449711589784    3.52279847889012
C         1.30724952355580   -1.46917595108679    3.83943117039350
C        -1.10065759319468   -2.21429386785748    4.90878035500328
C        -2.16265151497621   -2.52230365917982    2.70275878797671
C         1.16751354709392   -1.56078383136585    5.21070344146159
H         2.27465523312957   -1.23902031833784    3.42038783170223
C        -0.05502063342849   -1.91946428696566    5.75813027695532
H        -2.04989639859519   -2.53459888788829    5.31781614546849
N        -3.27175733154001   -1.59359339455183    2.80485182875763
H        -2.51568537604008   -3.50364028862580    3.04899451093459
H        -1.87447773123157   -2.62013067108257    1.65475522586933
H         2.01281179445748   -1.37112138655469    5.85724429746502
H        -0.18132981444346   -1.99568995222944    6.82809222631362
C        -3.32781000866532   -0.44036258144055    3.51396505491902
C        -4.46614980377169   -1.78284616524160    2.18749130370850
C        -4.56998395560145    0.11471811539865    3.35062771802421
H        -2.48675611096859   -0.08564011613730    4.07509161157270
C        -5.29709311642672   -0.74140252082254    2.50398154774288
H        -4.63824431195514   -2.64251358860124    1.56882761422466
H        -4.91677731427045    1.03201677729244    3.78638917195020
H        -6.30852536560886   -0.60658482430958    2.17093479773083
