21
 energy: -28.975272805219 gnorm: 0.000801458605 xtb: 6.4.0 (f63f532)
C         2.34338994806088    1.18042318304333    0.03054416106743
C         3.10672057733744    0.02720058821118    0.06023084402271
C         2.49232206733774   -1.21293559686674    0.03361777582735
C         1.11211948782413   -1.28641062495506   -0.01612798496603
C         0.36682255354807   -0.12022161790926   -0.04531037712303
Br       -1.54765257965651   -0.32527040322150   -0.10077756780656
C         0.95318094778900    1.14224496114657   -0.03240106148194
C         0.13334747915333    2.40810251623660   -0.03545568533852
C        -0.12774379187866    2.83876505268433    1.41319477955798
C         0.78367234069758    3.54324957652720   -0.82683936846079
H         2.83765226712732    2.13831116698604    0.05671273545583
H         4.18271428533297    0.09763296367805    0.10751054688100
H         3.07622494765979   -2.11981866918466    0.05561400471035
H         0.61263739837741   -2.24302407239731   -0.03135803931339
H        -0.83157852383976    2.18995200495117   -0.50406997808107
H         0.81170608171932    3.04248818437574    1.92263642413341
H        -0.65285308564764    2.05614940067326    1.95701173393349
H        -0.73810374192894    3.73832196264761    1.43043257345452
H         1.64542154442407    3.94901257146940   -0.30309717522480
H         0.06511361775241    4.34842107720862   -0.96153123088700
H         1.09867617881002    3.19568577469544   -1.80836711036094
