125
 energy: -176.142754382396 gnorm: 0.015780723555 xtb: 6.4.1 (1a32961)
N        -0.96510000000000   -2.11530000000000   -0.24090000000000
C        -2.24699999999999   -1.69840000000000   -0.36220000000000
C        -3.14040000000000   -2.36820000000000   -1.21200000000000
C        -2.70220000000000   -3.47560000000000   -1.93049999999998
C        -1.37779999999999   -3.89880000000001   -1.78760000000001
C        -0.54289999999999   -3.18670000000000   -0.93510000000000
H         0.49810000000000   -3.45630000000000   -0.78940000000000
H        -0.99569999999999   -4.76030000000001   -2.32770000000000
H        -4.16500000000000   -2.02890000000001   -1.31830000000001
C        -2.62130000000000   -0.50950000000001    0.44100000000000
N        -1.62600000000000    0.07330000000000    1.16020000000000
C        -1.89680000000000    1.15240000000000    1.91690000000000
C        -3.17230000000000    1.70330000000000    1.99650000000000
C        -4.20510000000000    1.11739999999998    1.26270000000001
C        -3.92610000000000    0.00249999999998    0.47820000000000
H        -4.71960000000000   -0.46420000000001   -0.09519999999999
H        -3.34630000000000    2.57509999999999    2.62070000000000
H        -1.04450000000000    1.57420000000000    2.43690000000000
Ir        0.42150000000000   -0.81650000000000    0.91330000000000
H         0.87260000000000   -2.23030000000000    1.54050000000000
B         0.50669999999999    0.41560000000000   -0.81540000000000
O         0.19500000000000   -0.04700000000000   -2.09150000000000
C         0.00650000000000    1.10040000000000   -2.95429999999999
C         0.49020000000001    0.74740000000001   -4.35780000000000
H         1.51609999999999    0.37380000000000   -4.33700000000000
H         0.44729999999999    1.62240000000001   -5.01670000000000
H        -0.14740000000000   -0.03389999999999   -4.78430000000000
C        -1.50119999999999    1.39559999999999   -2.96669999999999
H        -1.75370000000000    2.21459999999999   -3.64850000000001
H        -2.03200000000000    0.49450000000000   -3.28929999999999
H        -1.85170000000000    1.65209999999999   -1.96220000000000
C         0.84229999999999    2.20670000000000   -2.22040000000000
O         0.75199999999999    1.78259999999999   -0.83690000000000
C         2.32930000000001    2.18620000000001   -2.59900000000000
H         2.74129999999999    1.18500000000000   -2.45750000000000
H         2.48869999999999    2.51300000000000   -3.63180000000000
H         2.87200000000000    2.86269999999999   -1.93200000000000
C         0.28440000000000    3.62290000000001   -2.33660000000000
H        -0.72650000000001    3.69040000000000   -1.92910000000000
H         0.92129999999999    4.31480000000000   -1.77610000000000
H         0.26429999999999    3.94810000000000   -3.38320000000000
B         1.56300000000000    0.60960000000000    1.84840000000001
O         2.92779999999999    0.55229999999996    2.15019999999998
C         3.36329999999999    1.88660000000000    2.50260000000000
C         4.53140000000000    1.78590000000001    3.47740000000001
H         4.27910000000001    1.16090000000000    4.33690000000000
H         5.39390000000000    1.33790000000001    2.97340000000001
H         4.82390000000000    2.77870000000000    3.83819999999999
C         3.79699999999999    2.56850000000001    1.19670000000000
H         4.20020000000000    3.57090000000000    1.37680000000000
H         4.56740000000000    1.95560000000001    0.72110000000000
H         2.95240000000000    2.63260000000000    0.50540000000000
C         2.05040000000000    2.50090000000000    3.09320000000000
O         1.03750000000001    1.81620000000002    2.31909999999998
C         1.89099999999998    4.00450000000000    2.88649999999999
H         1.87290000000000    4.25440000000000    1.82410000000000
H         0.94939999999999    4.34260000000000    3.33170000000000
H         2.71079999999999    4.55150000000000    3.36630000000000
C         1.82470000000000    2.13200000000000    4.56520000000000
H         1.92610000000000    1.05330000000000    4.71320000000000
H         2.52610000000000    2.65280000000000    5.22540000000000
H         0.80630000000000    2.41580000000000    4.84900000000000
B         2.27820000000000   -1.33090000000000    0.17410000000000
O         2.89460000000000   -2.57740000000000    0.38450000000000
C         4.26930000000000   -2.48200000000000   -0.07209999999999
C         5.10900000000000   -2.05380000000000    1.14010000000000
H         4.76350000000000   -1.08739999999999    1.51750000000000
H         4.98050000000000   -2.79470000000000    1.93590000000000
H         6.17420000000000   -1.99289999999999    0.89299999999999
C         4.71950000000001   -3.84660000000000   -0.58470000000001
H         4.75280000000001   -4.56130000000000    0.24420000000000
H         5.72330000000000   -3.78369999999999   -1.02010000000001
H         4.03500000000002   -4.23599999999999   -1.34169999999999
C         4.16440000000000   -1.36220000000000   -1.16300000000000
O         3.08520000000001   -0.55029999999995   -0.65400000000002
C         5.40720000000000   -0.48870000000000   -1.31549999999999
H         6.27320000000001   -1.09010000000001   -1.61530000000000
H         5.23299999999999    0.26930000000000   -2.08590000000001
H         5.64270000000000    0.02650000000001   -0.38240000000000
C         3.71800000000002   -1.89830000000000   -2.53110000000001
H         2.82530000000000   -2.52160000000000   -2.42740000000000
H         3.46090000000002   -1.05250000000000   -3.17550000000000
H         4.50570000000000   -2.48290000000000   -3.01790000000001
H        -3.38500000000002   -4.00130000000001   -2.59310000000001
H        -5.21400000000000    1.52079999999998    1.29959999999998
C         0.23590000000000   -1.68140000000000    2.96029999999999
C        -0.82532410440065   -2.43871492761902    3.45214827033650
C         1.49468815665379   -1.90825157352619    3.76232348525683
C        -0.81458090326513   -3.18399384685189    4.62837090401062
H        -1.71960350796273   -2.50919750854627    2.84276553637250
N         2.93307458388037   -1.92223466904729    3.49576524028570
C         1.45239862271721   -2.57337579851106    5.03020723387023
C         0.29495820098311   -3.23188956893137    5.45042893222496
H        -1.66403911868648   -3.81016219308408    4.87252958066705
O         4.00013741053374   -0.94487999860332    3.39465416787239
C         3.57593903743754   -2.70550837786647    4.46480449220306
C         2.77547486528116   -2.84626081302098    5.59195269500020
H         0.33824864239625   -3.86110925054069    6.33055215505068
Si        5.37561226048882   -0.57590872847993    4.35310321272418
C         4.95136524046402   -2.97472903191949    4.49627546851568
C         3.44027728886555   -2.97186520989563    6.83137760298103
C         6.54376026873243   -0.15391539780182    2.85736870671856
C         4.39412594731288   -0.01430397495790    5.90789067599153
C         7.00941494766289   -0.32413268380650    5.37913150336020
C         5.56798276718623   -3.12315967036845    5.72547527170208
H         5.55669831804209   -3.01282646975058    3.60434736990939
C         4.84104125405289   -2.99441649945075    6.91108902860793
H         2.87706249848048   -2.93326103866017    7.75577711686784
H         6.10396178892074    0.11933248240935    1.90265581592334
H         7.15438194549657    0.70120173112522    3.15707495915882
H         7.26130163187486   -0.94668449317396    2.64414337360750
H         4.55998170949058   -0.67267779889104    6.75332537319441
H         3.31371286715235   -0.00243287053446    5.75909291707593
H         4.67751489339217    0.98008946158802    6.25940557108087
H         7.07645898617580   -0.78093240794694    6.36088739889783
H         7.05512737212437    0.75392910369948    5.55205589210741
H         7.93849593360142   -0.56581797467366    4.86350293308746
H         6.64676574065323   -3.21994713393883    5.74516797012196
C         5.67788099465158   -2.83110120831248    8.16650284411970
C         5.78720142465782   -1.41704170594983    8.74450439458750
H         6.69922663866469   -3.13792642317903    7.91578018697420
H         5.32297855424184   -3.49237816962364    8.96121237852327
H         6.21937064963567   -0.71353162835247    8.03365922586436
H         6.45093691742477   -1.43161029004507    9.61215366449003
H         4.81991711728653   -1.02756756515198    9.06192634050534
