99
 energy: -139.597631566760 gnorm: 0.000196260124 xtb: 6.4.1 (1a32961)
N        -0.90619798450344   -2.01875400543954   -0.37992632083511
C        -2.16509559496261   -1.56232396276198   -0.53019494691733
C        -3.04699250605039   -2.17113332183068   -1.43370186391398
C        -2.62459949396795   -3.24044219538401   -2.19130708767746
C        -1.31653544137279   -3.69455295259199   -2.03199072050675
C        -0.50935888039360   -3.05272033803925   -1.11733162878484
H         0.50905881997537   -3.37570404424955   -0.95261159928055
H        -0.94282157445794   -4.52873144859354   -2.60332769054977
H        -4.05676084901583   -1.81057186970802   -1.54178907991523
C        -2.53567925169348   -0.41651621622228    0.28766005825313
N        -1.59457235696480    0.04450967282123    1.14103796436066
C        -1.89366475922599    1.08412704429254    1.91777843415308
C        -3.11190227631720    1.73008686935518    1.89199828406719
C        -4.08560988082808    1.27989752774308    1.00272035092118
C        -3.78977391791135    0.20146745310934    0.19852639745885
H        -4.52885682365852   -0.15886105229618   -0.49781421202319
H        -3.30084595121975    2.56324201460301    2.54953593449080
H        -1.10340798528339    1.40522603862072    2.57866454288573
Ir        0.42149999999989   -0.81650000000000    0.91329999999993
H         0.87259999999992   -2.23029999999994    1.54049999999995
B         0.39823180574545    0.63714617906794   -0.58685554745538
O        -0.27186757496248    0.37718548585574   -1.77056888784118
C        -0.36130589448241    1.57067528789270   -2.55525020772416
C        -0.15414279692263    1.23531706217297   -4.03007352711371
H         0.75242215998991    0.65541625427102   -4.16794530173849
H        -0.09783616479604    2.14863153628815   -4.61679427183478
H        -0.99420973908105    0.64203188303438   -4.38360821263120
C        -1.77626932112555    2.13396039700155   -2.35769135971597
H        -1.93540224430077    3.01924003388088   -2.96633796771809
H        -2.49782842929940    1.37129610605121   -2.64446686741145
H        -1.94015103526202    2.37431417491710   -1.30896434847255
C         0.74265953122889    2.47730490932912   -1.92033834222641
O         0.86986279877213    1.93083289221230   -0.60098399113449
C         2.10614145402355    2.30465431899696   -2.60113276872234
H         2.37914675194533    1.25217230898507   -2.58726834500549
H         2.09489178191641    2.68527531027936   -3.61852936991125
H         2.85270479203062    2.84790558895987   -2.02647880349581
C         0.39418713684841    3.96228878974163   -1.84209753803285
H        -0.46646800442789    4.13199363634637   -1.20260244366478
H         1.23904428895649    4.50450435016843   -1.42422686135991
H         0.18818119263485    4.34860213546163   -2.83719700769559
B         1.56896034186009    0.63701956945373    1.87967054821732
O         2.93981556126442    0.76251409044067    1.89483610504894
C         3.31163107939327    2.03373811979287    2.44607104901241
C         4.56419051527574    1.88149274742136    3.30761825779615
H         4.43701137266682    1.09814350325387    4.04708099836756
H         5.40440838928568    1.61400143999190    2.67191291007704
H         4.78906859463088    2.82019250953114    3.80681549241724
C         3.61480090566236    2.95363321658594    1.25729041315497
H         3.89328902042318    3.95115754711644    1.58422881203637
H         4.43634354613982    2.52512755600232    0.68748698346469
H         2.74270120415639    2.99031983412886    0.60955424371646
C         2.02190860656671    2.45868903571718    3.22615944105011
O         1.00378507209384    1.65985607825748    2.60966758459139
C         1.65121540829479    3.93532235710644    3.10117311427925
H         1.42910617990601    4.18785087331059    2.06980170040089
H         0.76425648391011    4.13085280228928    3.69887264056837
H         2.46344313128465    4.55861763009871    3.46568446789038
C         2.06366931466958    2.07049612115562    4.70948205780452
H         2.28069633451296    1.01101886685657    4.80747227135054
H         2.80400236294402    2.65535605364528    5.24681720769530
H         1.08391569186174    2.25225598344926    5.14514729131204
B         2.27819999999937   -1.33089999999856    0.17409999999957
O         3.11003771328913   -2.30127427167859    0.69318990291169
C         4.39069181571598   -2.25839945494169    0.05218169241800
C         5.33897903610368   -1.54550750805078    1.02248281034576
H         4.91624108183221   -0.57834228515585    1.27923445866863
H         5.40479503221973   -2.13540737802716    1.93326517622656
H         6.33293238891063   -1.43293043713977    0.60075364397422
C         4.88854824604415   -3.68405343870792   -0.18674765933237
H         5.03398365417206   -4.16927231107583    0.77479309741267
H         5.83521811467235   -3.66516291434645   -0.71942129400286
H         4.16701386509602   -4.26606745541817   -0.75032865464880
C         4.10208946324168   -1.42846632255251   -1.24889734216330
O         2.85419805885702   -0.78556498317199   -0.95053445423994
C         5.14779024048266   -0.36228223826475   -1.57234357096838
H         6.12521585620082   -0.81806711879400   -1.70407063913956
H         4.86811576548676    0.14262952262665   -2.49359003692064
H         5.18864661642646    0.37762449338842   -0.78063661874745
C         3.87719110363944   -2.30213643760318   -2.49069538689575
H         3.10142454087227   -3.03795088887525   -2.29772261723417
H         3.53935711004404   -1.66633938297251   -3.30563724553578
H         4.79389461339329   -2.80173182404364   -2.78897836808709
H        -3.29325292460278   -3.71555814617059   -2.89309837025126
H        -5.04938972828517    1.76288490754156    0.94372743129317
C         0.23589999999984   -1.68139999999782    2.96030000000144
C        -1.05112191548118   -2.04666363276033    3.34174274920754
C         1.20763548877681   -1.56252902997595    3.95073399819222
C        -1.37353607702713   -2.18648521856616    4.68298098041612
H        -1.81890243274573   -2.22992499749629    2.60237598946107
C         0.90181048482457   -1.71609088480279    5.29630483229737
H         2.22575830613032   -1.35506352234440    3.65465621140473
C        -0.40857618891640   -2.01437561198830    5.65734170291711
H        -2.38516405770423   -2.44587639217369    4.96634286779504
C         1.95946451275207   -1.57562922342467    6.35270642533622
H        -0.66433447339280   -2.13347536727151    6.70099836896875
H         2.94904638157505   -1.54450628300990    5.90417015994222
H         1.91580877716407   -2.41110386353678    7.04939347048765
H         1.80572962807500   -0.65857368800123    6.92136834234711
