108
 energy: -154.744129886233 gnorm: 0.000599717863 xtb: 6.4.0 (f63f532)
N        -0.96510000000001   -2.11530000000000   -0.24090000000003
C        -2.24700000000000   -1.69840000000004   -0.36219999999994
C        -3.14039999999998   -2.36820000000002   -1.21200000000002
C        -2.70220000000002   -3.47559999999997   -1.93050000000000
C        -1.37780000000001   -3.89880000000015   -1.78759999999989
C        -0.54290000000003   -3.18669999999999   -0.93510000000008
H         0.49810000000001   -3.45630000000000   -0.78940000000000
H        -0.99570000000001   -4.76029999999996   -2.32769999999999
H        -4.16500000000001   -2.02889999999999   -1.31830000000000
C        -2.62130000000000   -0.50950000000000    0.44100000000004
N        -1.62600000000000    0.07329999999998    1.16020000000001
C        -1.89680000000001    1.15240000000003    1.91690000000001
C        -3.17230000000001    1.70329999999999    1.99650000000000
C        -4.20509999999999    1.11740000000000    1.26270000000000
C        -3.92609999999998    0.00250000000001    0.47819999999999
H        -4.71960000000000   -0.46420000000001   -0.09520000000000
H        -3.34630000000000    2.57510000000002    2.62070000000001
H        -1.04450000000000    1.57420000000000    2.43690000000001
Ir        0.42150000000000   -0.81650000000000    0.91330000000000
H         0.87260000000000   -2.23030000000000    1.54050000000000
B         0.50670000000000    0.41559999999995   -0.81539999999999
O         0.19500000000000   -0.04699999999999   -2.09150000000002
C         0.00649999999998    1.10040000000013   -2.95430000000004
C         0.49019999999997    0.74740000000002   -4.35780000000002
H         1.51610000000001    0.37380000000002   -4.33700000000000
H         0.44729999999999    1.62239999999995   -5.01669999999997
H        -0.14740000000001   -0.03390000000000   -4.78429999999999
C        -1.50120000000001    1.39560000000006   -2.96670000000006
H        -1.75370000000000    2.21459999999994   -3.64849999999996
H        -2.03199999999999    0.49450000000000   -3.28929999999999
H        -1.85170000000000    1.65210000000002   -1.96219999999996
C         0.84229999999997    2.20670000000002   -2.22039999999999
O         0.75200000000001    1.78260000000002   -0.83690000000000
C         2.32930000000000    2.18619999999997   -2.59900000000005
H         2.74129999999998    1.18500000000002   -2.45749999999998
H         2.48870000000001    2.51299999999998   -3.63180000000002
H         2.87200000000000    2.86269999999996   -1.93199999999999
C         0.28439999999998    3.62289999999996   -2.33659999999990
H        -0.72649999999999    3.69040000000001   -1.92910000000001
H         0.92130000000002    4.31480000000002   -1.77610000000000
H         0.26430000000000    3.94810000000000   -3.38319999999992
B         1.56300000000002    0.60959999999999    1.84840000000001
O         2.92780000000000    0.55229999999998    2.15020000000001
C         3.36329999999997    1.88659999999996    2.50259999999993
C         4.53139999999998    1.78590000000002    3.47739999999997
H         4.27910000000000    1.16089999999997    4.33690000000004
H         5.39389999999999    1.33789999999999    2.97340000000000
H         4.82389999999999    2.77870000000001    3.83820000000002
C         3.79700000000002    2.56850000000001    1.19670000000002
H         4.20020000000000    3.57090000000000    1.37680000000000
H         4.56740000000000    1.95560000000000    0.72110000000001
H         2.95240000000002    2.63260000000000    0.50540000000000
C         2.05040000000000    2.50090000000002    3.09319999999999
O         1.03749999999999    1.81620000000000    2.31910000000000
C         1.89100000000001    4.00449999999997    2.88650000000006
H         1.87290000000000    4.25440000000000    1.82410000000003
H         0.94939999999999    4.34260000000000    3.33170000000001
H         2.71080000000001    4.55150000000000    3.36629999999999
C         1.82470000000002    2.13199999999996    4.56520000000003
H         1.92610000000000    1.05330000000001    4.71320000000001
H         2.52610000000000    2.65279999999999    5.22540000000002
H         0.80630000000002    2.41580000000000    4.84900000000000
B         2.27820000000001   -1.33090000000001    0.17409999999999
O         2.89459999999998   -2.57739999999999    0.38449999999999
C         4.26930000000001   -2.48199999999999   -0.07210000000003
C         5.10900000000002   -2.05380000000000    1.14009999999993
H         4.76350000000000   -1.08739999999998    1.51750000000001
H         4.98050000000000   -2.79469999999999    1.93589999999999
H         6.17420000000000   -1.99290000000000    0.89300000000000
C         4.71950000000000   -3.84659999999999   -0.58470000000008
H         4.75280000000000   -4.56130000000003    0.24419999999998
H         5.72329999999995   -3.78370000000000   -1.02010000000001
H         4.03500000000003   -4.23600000000001   -1.34170000000003
C         4.16440000000001   -1.36219999999999   -1.16299999999998
O         3.08520000000002   -0.55030000000001   -0.65400000000001
C         5.40720000000000   -0.48869999999999   -1.31549999999997
H         6.27319999999998   -1.09010000000000   -1.61530000000000
H         5.23300000000000    0.26930000000000   -2.08590000000000
H         5.64270000000000    0.02650000000001   -0.38239999999999
C         3.71799999999996   -1.89829999999999   -2.53109999999997
H         2.82530000000000   -2.52159999999999   -2.42740000000001
H         3.46090000000001   -1.05249999999999   -3.17550000000000
H         4.50569999999998   -2.48290000000001   -3.01790000000001
H        -3.38499999999999   -4.00129999999999   -2.59309999999999
H        -5.21399999999999    1.52080000000002    1.29959999999999
C         0.23590000000000   -1.68140000000000    2.96029999999999
C        -1.00468667102420   -2.11689095312692    3.41825649296913
C         1.27944053565251   -1.63376245521017    3.88686549607535
C        -1.20411249869988   -2.45693741315643    4.75154618336611
H        -1.84034266219364   -2.21769684997469    2.73507817118368
C         1.08751587460106   -1.96767303928084    5.21740199653790
H         2.26793426584534   -1.35236891524356    3.54890602718766
C        -0.15869356537355   -2.39878250272349    5.66752914721569
H        -2.18238047974784   -2.79482397689707    5.07423230754427
H         1.91665618979841   -1.94023537800387    5.91488974478245
C        -0.30050588757378   -2.88877798156396    7.08909947783768
C         0.50048174598860   -4.16032999842459    7.20528911247329
H         0.11050213019893   -2.15190964451354    7.78427936325086
H        -1.35081184737765   -3.07700768228286    7.32684731663888
N         1.72958001565646   -4.05078280368281    7.71844944693144
C         0.00368449008993   -5.37266153094840    6.73344676309885
C         2.49630068193077   -5.13708604544867    7.76526016590164
C         0.81043457113149   -6.49807010722824    6.78776796058158
H        -0.99634431570488   -5.42425874663166    6.32445900709828
C         2.09021312108643   -6.38023493800144    7.31246414517924
H         3.48292020631382   -4.98494847977222    8.18810833754762
H         0.44902761543718   -7.45186912859019    6.42436137461533
H         2.75369358869982   -7.23121422201328    7.36714161550654
