106
 energy: -152.429555379419 gnorm: 0.000368286834 xtb: 6.4.1 (1a32961)
N        -0.92437644900863   -1.86163885792217   -0.53544758187334
C        -2.11455984553617   -1.25626477804831   -0.72633419696605
C        -2.91851093963074   -1.58033967673042   -1.82542806843456
C        -2.50071978163444   -2.53781248468112   -2.72304261458784
C        -1.27514892861352   -3.16377866528372   -2.50735840202645
C        -0.53238384364080   -2.78511183611162   -1.40933366233466
H         0.42544233360893   -3.24165286178683   -1.20255826754625
H        -0.91219024317466   -3.92339744680920   -3.18061870828480
H        -3.85850380766027   -1.07769163463857   -1.98420716453265
C        -2.49226077329282   -0.25429108922331    0.26091463013376
N        -1.55927997482031    0.06219331218824    1.18556910165083
C        -1.86794020337345    0.95839381908970    2.12069357341632
C        -3.08922129471644    1.59527456512182    2.19406199277428
C        -4.05773720068142    1.28850601539818    1.24088859787575
C        -3.75204130782369    0.35714092886856    0.27242477140345
H        -4.49371924286184    0.09461166082482   -0.46379075712326
H        -3.28549088371632    2.30747463751461    2.97917410522875
H        -1.08673783606799    1.16979675115547    2.83413634540763
Ir        0.42149999999977   -0.81649999999983    0.91329999999985
H         0.87259999999995   -2.23030000000009    1.54050000000001
B         0.48380679885490    0.70209675486814   -0.53613472370317
O        -0.27815130613977    0.59706063524681   -1.68755263132739
C        -0.28560903645625    1.84455161535091   -2.38815678560833
C        -0.21625607843627    1.59199567720384   -3.89222160784424
H         0.62265315089597    0.94983376224832   -4.13869629711413
H        -0.12408885743524    2.53480536110374   -4.42551318313639
H        -1.12945041168492    1.09495617007783   -4.21129604386059
C        -1.61498218760584    2.53716298067436   -2.05432411170579
H        -1.71079514524818    3.48049808718312   -2.58361517401038
H        -2.43229017322248    1.88108747924863   -2.34738913854784
H        -1.68791291826138    2.70720300781904   -0.98195088357177
C         0.95058339139746    2.58415642507167   -1.77960618994078
O         1.11205378304159    1.92660700167230   -0.51600163843004
C         2.23609043375349    2.33407367871188   -2.57750382512179
H         2.40116221313294    1.26256874237552   -2.65997965776601
H         2.18744997348811    2.79068137028280   -3.56188368273726
H         3.07563543340644    2.75833230856795   -2.03126421391469
C         0.76475075202075    4.08545838042426   -1.56599230682357
H        -0.02203902227307    4.28527094669389   -0.84486398296077
H         1.69080802901517    4.50874143403259   -1.18366078483366
H         0.52395331728210    4.56931051121006   -2.50910104235725
B         1.57712090982968    0.63961220709469    1.86894455220740
O         2.94545704630810    0.71985954499196    1.92484454876311
C         3.35821550259463    1.96023968787024    2.51258057526287
C         4.48654487470928    1.69456154365460    3.51016823311137
H         4.18700549069878    0.96372613954077    4.25464812575137
H         5.34514012862257    1.29690070986692    2.97498779713006
H         4.77799271483825    2.61765449197426    4.00359675381324
C         3.88750678935492    2.83089046567024    1.36645930087651
H         4.17700455159502    3.81807461715960    1.71334497617932
H         4.75706360602775    2.34254396523090    0.93184678197209
H         3.12307900463885    2.90431454563881    0.59787063135752
C         2.03106226359828    2.50981168462355    3.15027257490858
O         1.01737930996353    1.69352507063874    2.55029647813535
C         1.73134929562827    3.97541722173370    2.83422646726282
H         1.61491018422333    4.11573027851428    1.76485272736584
H         0.79964036783374    4.25863294990157    3.31784738042334
H         2.52740684518688    4.61383952131923    3.20699764454423
C         1.94593719333843    2.29873180819738    4.66727822378084
H         2.07231313991761    1.24788332383475    4.91196655334846
H         2.69356085525543    2.89044405256792    5.18621926347718
H         0.95880187767574    2.60360244085833    5.00713844503850
B         2.27819999999994   -1.33089999999967    0.17410000000045
O         3.18730293800276   -2.18074891300669    0.76762945846928
C         4.41761741478770   -2.19429720200792    0.03440020700101
C         5.40676760595125   -1.32351326460045    0.81643000986622
H         4.96789051707664   -0.34151998913158    0.96594423392326
H         5.56177617590393   -1.77231234778790    1.79445763752852
H         6.36225276962295   -1.24602228128742    0.30688516277263
C         4.95048658756694   -3.62588814749899   -0.03597693373501
H         5.18903008244493   -3.96083212664894    0.97007344071364
H         5.85139882118144   -3.66095089330333   -0.64219664706884
H         4.20932487018444   -4.30313685254917   -0.44692730679183
C         4.00772450636758   -1.57128087851287   -1.34719631639941
O         2.76054712929239   -0.92549636415738   -1.05199655969836
C         4.98880600855511   -0.53918300640486   -1.90141518916675
H         5.97157980466573   -0.98360270527321   -2.03236677428966
H         4.63093184733458   -0.19076080261860   -2.86713359427920
H         5.05576467275305    0.31564198619803   -1.23721695970739
C         3.72819723052682   -2.62430315753644   -2.42854057187945
H         3.00183142894935   -3.34810486801954   -2.06961407373278
H         3.30478758271864   -2.12608727690726   -3.29739543490907
H         4.64062028226412   -3.13385851025346   -2.72296053029543
H        -3.11004340488263   -2.79460257049567   -3.57629412959815
H        -5.02729280043965    1.76282745725550    1.26311133209895
C         0.23589999999860   -1.68140000000017    2.96029999999893
C        -0.98165715044385   -2.15608821062610    3.45498092762433
C         1.26263806997417   -1.43033072902481    3.86880540841657
C        -1.17834070874186   -2.19786085774425    4.83543155191647
C        -2.08682705813319   -2.66935369181429    2.57755938145590
C         1.07615338439902   -1.49810244187133    5.24646092742410
H         2.23502027787478   -1.17441516555676    3.48005921515744
C        -0.18337755133836   -1.85762996887046    5.72651729540596
H        -2.13562066842383   -2.53250830173230    5.21354822525590
H        -2.49224811604937   -3.59169049498321    2.99211741239626
H        -1.72234610396333   -2.86622678847510    1.57402354517147
H        -2.90290673510759   -1.94876617404600    2.51715691311147
C         2.18750171127858   -1.21906139216902    6.15598732493906
H        -0.36310272731704   -1.92276951209846    6.78934672438320
C         2.05658370743812   -0.74010663503417    7.42800831362056
C         3.55987981430672   -1.41720061323420    5.81928567115172
S         3.56789124380799   -0.52523835379094    8.21877535573376
H         1.15927985539968   -0.47550355525682    7.95039960945088
C         4.40577684803822   -1.09355546305508    6.82439831193619
H         3.88309130273168   -1.80205988897688    4.86930457670646
H         5.47576652529657   -1.15229970580498    6.84359478715508
