107
 energy: -152.606130442886 gnorm: 0.000564881089 xtb: 6.4.0 (f63f532)
N        -0.96510000000000   -2.11530000000001   -0.24090000000000
C        -2.24700000000001   -1.69839999999999   -0.36220000000000
C        -3.14040000000000   -2.36820000000000   -1.21200000000000
C        -2.70220000000001   -3.47560000000001   -1.93050000000000
C        -1.37779999999999   -3.89880000000001   -1.78759999999999
C        -0.54289999999999   -3.18669999999997   -0.93510000000001
H         0.49810000000000   -3.45630000000000   -0.78940000000000
H        -0.99570000000000   -4.76030000000000   -2.32770000000001
H        -4.16500000000000   -2.02890000000000   -1.31830000000000
C        -2.62130000000000   -0.50950000000000    0.44100000000000
N        -1.62600000000000    0.07330000000000    1.16019999999999
C        -1.89680000000000    1.15240000000001    1.91690000000000
C        -3.17229999999999    1.70330000000002    1.99649999999999
C        -4.20510000000000    1.11739999999999    1.26269999999999
C        -3.92610000000000    0.00250000000000    0.47820000000000
H        -4.71960000000000   -0.46420000000000   -0.09520000000000
H        -3.34630000000000    2.57510000000000    2.62070000000001
H        -1.04450000000000    1.57420000000000    2.43690000000000
Ir        0.42150000000000   -0.81650000000000    0.91330000000000
H         0.87260000000000   -2.23030000000000    1.54050000000000
B         0.50670000000000    0.41559999999999   -0.81540000000000
O         0.19500000000000   -0.04700000000000   -2.09149999999999
C         0.00650000000000    1.10040000000000   -2.95430000000001
C         0.49020000000000    0.74739999999998   -4.35780000000002
H         1.51610000000000    0.37380000000000   -4.33700000000000
H         0.44730000000000    1.62239999999998   -5.01669999999999
H        -0.14740000000000   -0.03390000000000   -4.78430000000000
C        -1.50120000000000    1.39559999999998   -2.96670000000000
H        -1.75370000000000    2.21460000000000   -3.64850000000000
H        -2.03200000000001    0.49450000000002   -3.28930000000000
H        -1.85170000000000    1.65210000000000   -1.96220000000000
C         0.84230000000000    2.20670000000000   -2.22039999999999
O         0.75200000000000    1.78260000000001   -0.83690000000000
C         2.32930000000000    2.18619999999999   -2.59900000000001
H         2.74130000000000    1.18499999999999   -2.45750000000000
H         2.48870000000000    2.51300000000000   -3.63180000000000
H         2.87200000000000    2.86270000000000   -1.93200000000000
C         0.28440000000000    3.62290000000001   -2.33659999999997
H        -0.72650000000001    3.69040000000000   -1.92910000000000
H         0.92130000000001    4.31480000000000   -1.77610000000000
H         0.26430000000000    3.94810000000001   -3.38320000000000
B         1.56300000000000    0.60960000000000    1.84840000000000
O         2.92780000000000    0.55229999999999    2.15020000000000
C         3.36330000000000    1.88659999999999    2.50260000000003
C         4.53140000000000    1.78590000000000    3.47740000000000
H         4.27910000000000    1.16090000000001    4.33690000000000
H         5.39390000000000    1.33790000000000    2.97340000000000
H         4.82390000000000    2.77870000000000    3.83820000000000
C         3.79700000000000    2.56850000000000    1.19670000000001
H         4.20020000000000    3.57090000000000    1.37680000000000
H         4.56740000000000    1.95560000000000    0.72110000000001
H         2.95240000000000    2.63260000000000    0.50539999999999
C         2.05040000000000    2.50090000000000    3.09320000000000
O         1.03750000000001    1.81620000000000    2.31910000000001
C         1.89099999999999    4.00449999999999    2.88649999999997
H         1.87290000000000    4.25440000000000    1.82410000000000
H         0.94940000000000    4.34260000000000    3.33170000000000
H         2.71080000000000    4.55150000000000    3.36630000000000
C         1.82470000000000    2.13200000000000    4.56520000000002
H         1.92610000000000    1.05329999999998    4.71320000000000
H         2.52610000000000    2.65280000000000    5.22540000000000
H         0.80630000000000    2.41580000000001    4.84900000000000
B         2.27820000000000   -1.33090000000000    0.17410000000000
O         2.89460000000000   -2.57740000000000    0.38450000000000
C         4.26930000000001   -2.48200000000001   -0.07210000000000
C         5.10900000000000   -2.05380000000000    1.14010000000002
H         4.76350000000000   -1.08740000000000    1.51750000000000
H         4.98050000000000   -2.79470000000000    1.93590000000001
H         6.17420000000000   -1.99290000000000    0.89300000000000
C         4.71950000000001   -3.84660000000000   -0.58469999999998
H         4.75280000000000   -4.56129999999999    0.24419999999999
H         5.72330000000000   -3.78370000000000   -1.02010000000000
H         4.03500000000001   -4.23600000000001   -1.34170000000000
C         4.16440000000000   -1.36220000000000   -1.16299999999999
O         3.08520000000000   -0.55030000000000   -0.65400000000000
C         5.40720000000000   -0.48870000000001   -1.31550000000000
H         6.27320000000000   -1.09010000000000   -1.61530000000000
H         5.23300000000000    0.26930000000000   -2.08590000000000
H         5.64270000000000    0.02650000000000   -0.38240000000000
C         3.71800000000000   -1.89829999999998   -2.53110000000000
H         2.82530000000000   -2.52160000000000   -2.42740000000000
H         3.46090000000000   -1.05250000000000   -3.17550000000000
H         4.50570000000001   -2.48290000000000   -3.01790000000000
H        -3.38500000000001   -4.00130000000001   -2.59310000000001
H        -5.21400000000000    1.52079999999999    1.29960000000000
C         0.23590000000001   -1.68140000000000    2.96030000000001
C        -0.99908656388098   -2.07774314808068    3.53251669733607
C         1.17222972444161   -1.83639075144481    3.95725668756336
C        -0.76753737521591   -2.41241226891039    4.84191944412192
H        -1.95948579769543   -2.10291895683053    3.04499521023809
N         0.56141753092074   -2.25463609709691    5.10362350559870
H         2.23159705380075   -1.65865887382494    3.91409727006109
H        -1.45022363854634   -2.74518060483319    5.60448833583878
C         1.24632663768172   -2.70757644726588    6.29797600780681
C         1.71866890792998   -4.13114252818371    6.12111625847569
H         2.10137457326812   -2.04827127475023    6.47761136809654
H         0.55503893662085   -2.63879663094070    7.14323137331283
C         2.88542831225667   -4.39911404962488    5.40840756928358
C         0.97476912323355   -5.19857369200886    6.61779782557724
C         3.30166013995321   -5.70596435997072    5.20149476385916
H         3.46916347517340   -3.57908848057677    5.01016394120795
C         1.39104018787463   -6.50598019474193    6.41145981015969
H         0.06373281990112   -5.00657150845293    7.17140720152276
C         2.55513244472587   -6.76221280104902    5.70231064888518
H         4.21173250314192   -5.90073011612284    4.64908292039371
H         0.80462408491372   -7.32666349107657    6.80451233799093
H         2.87970282831169   -7.78215313105699    5.54032767199098
