107
 energy: -152.620201645601 gnorm: 0.000220499835 xtb: 6.4.0 (f63f532)
N        -0.82632520819670   -1.95766567975603   -0.49275277423137
C        -2.08574659635245   -1.50104489614090   -0.65505480505994
C        -2.89008051622972   -1.96232225899740   -1.70564311932868
C        -2.40183179946063   -2.90243486998641   -2.58422619038834
C        -1.10310912267944   -3.37464786202169   -2.39786468522433
C        -0.36763449437319   -2.86957784115059   -1.34848246163930
H         0.64449492611653   -3.20458123447002   -1.17024889487668
H        -0.68055416671546   -4.11460835977588   -3.05831520565753
H        -3.88791043724934   -1.57750418949473   -1.84019660546888
C        -2.53417856580159   -0.50354498858382    0.30297203533587
N        -1.60925790179812   -0.05045590317411    1.17796481774670
C        -1.97394648014856    0.86640334732414    2.07191710876162
C        -3.24896297852558    1.38434685783201    2.15802760119677
C        -4.21584422559568    0.92470481840712    1.26542722153850
C        -3.85036173262537   -0.02255258483899    0.33550075852325
H        -4.58556947826863   -0.39828289334581   -0.35724412107584
H        -3.48824748527260    2.12206137071009    2.90702393135083
H        -1.19039463776711    1.19385631031196    2.73761341823931
Ir        0.42150000000026   -0.81649999999981    0.91330000000018
H         0.87259999999997   -2.23030000000015    1.54049999999984
B         0.41556130040349    0.70404391804393   -0.52618912575080
O        -0.36586695749778    0.57894240788112   -1.66603146884666
C        -0.47087819333254    1.84246581403799   -2.32740329013873
C        -0.43803992162316    1.64301127678351   -3.84071582965110
H         0.42394738458112    1.05348461570475   -4.13522006378465
H        -0.41055110743919    2.60660565558638   -4.34359756129601
H        -1.33489939195906    1.11075684137867   -4.14945188969350
C        -1.82642231117390    2.44423714238880   -1.92711376802672
H        -2.00144753062226    3.39140365669150   -2.42891370809527
H        -2.61309432571910    1.74472299186002   -2.20424829279957
H        -1.86766426477273    2.58511068296768   -0.84863231817666
C         0.73839876185808    2.63707549034551   -1.73625457828336
O         0.97062103578898    1.96434077144449   -0.49312859975846
C         2.01393400817764    2.47569633900823   -2.57252664802363
H         2.23105161643707    1.41706355671927   -2.69368364862266
H         1.91783372083549    2.95872705012618   -3.54077820792387
H         2.84341694137085    2.92504544231805   -2.03125188173220
C         0.47738871539982    4.12126990869615   -1.48560941287724
H        -0.29996695465607    4.26312796593291   -0.74102742213263
H         1.38906693045163    4.58552407166792   -1.11663725285429
H         0.18630480476155    4.61000975551967   -2.41200459473030
B         1.51191381643844    0.63097357747825    1.94968496680388
O         2.87840345042144    0.76026732282348    2.04628414994779
C         3.21618121036281    2.02337095350796    2.63566003747370
C         4.40760505074517    1.85393469131808    3.57754758097020
H         4.22509080558169    1.06710083664016    4.30132622964045
H         5.28379735357267    1.57951653230465    2.99585723051968
H         4.60894495828826    2.78740428236240    4.09642715810369
C         3.60579350586397    2.95566492421666    1.48180563875397
H         3.85505694788168    3.95103313217566    1.83757653201141
H         4.47058669821889    2.53526464890463    0.97319649750054
H         2.78558976256350    2.99593902883595    0.76976809846027
C         1.87781913141757    2.44646420816646    3.33169056843773
O         0.90162762885931    1.65391695237910    2.64644491080265
C         1.51852264428259    3.92468432691219    3.19147561278565
H         1.36973387568979    4.18257050044443    2.14822983299366
H         0.59139739748405    4.11840745909331    3.72560654922919
H         2.30368148683829    4.54512251881936    3.61537846719444
C         1.81951585865527    2.04790996794856    4.81252151746040
H         2.01933357762826    0.98470721829395    4.91195799565335
H         2.52947775817374    2.61983027167523    5.40200253568244
H         0.81549761840006    2.23715982028828    5.18511902936288
B         2.27819999999912   -1.33090000000061    0.17410000000135
O         3.19013377240354   -2.18900601185855    0.75463226863080
C         4.44543144478666   -2.12557787122584    0.06782019746872
C         5.36847027215753   -1.24863998898666    0.92135223452848
H         4.87869557986569   -0.29604887138447    1.10154672011556
H         5.51326525917772   -1.73518457790202    1.88249787083472
H         6.33458890052075   -1.10451941239512    0.44753420738566
C         5.04121315506372   -3.52973349837946   -0.03928731105000
H         5.25508325093009   -3.89586623693907    0.96132015063251
H         5.96565015655522   -3.50061644853216   -0.60946765233746
H         4.34727859352859   -4.21962948774209   -0.50768623149457
C         4.06114557941708   -1.46150199570597   -1.30170981605805
O         2.78265854436571   -0.87253089935419   -1.02514945596341
C         5.01913787969074   -0.36936652689990   -1.77625101658822
H         6.02264116957834   -0.76910107891619   -1.89387141787916
H         4.67769911088486    0.00959593285242   -2.73639772670370
H         5.03002597284187    0.45557070313974   -1.07215611051676
C         3.86277562154476   -2.47791955747713   -2.43479975896794
H         3.15752844675711   -3.24709193357320   -2.13237279305047
H         3.44686956850032   -1.96153227724392   -3.29665974143410
H         4.80606140925494   -2.93531701736105   -2.71775629244859
H        -3.00994765979149   -3.26303748324294   -3.40001726276909
H        -5.22808978819574    1.29852033534164    1.30260119753539
C         0.23589999999897   -1.68140000000287    2.96030000000154
C        -1.00865084043114   -2.05581029457334    3.52578174610795
C         1.13182941818255   -1.66727134502770    4.00380889269476
C        -0.82285695648657   -2.20558430951104    4.87431129189901
H        -1.93939479411023   -2.19285162290664    3.00740859891339
N         0.48200859613531   -1.95879353525073    5.16446451144641
H         2.18202920911515   -1.45444189895298    3.98242362924700
H        -1.52184759980612   -2.47045614692699    5.64431369677952
C         1.09677908964367   -2.15310804125394    6.45130704990478
C         1.40616164502357   -3.61115092973671    6.71725066341518
H         2.02774854870366   -1.57741334210395    6.47622239241883
H         0.43141031328658   -1.76938120280563    7.23016520928872
C         2.02350376181102   -4.38216379802648    5.73944138373976
C         1.08535080418107   -4.19508832592801    7.93491418450893
C         2.31441161547281   -5.71351006013555    5.97758760470263
H         2.26460236521926   -3.93816457194368    4.78481003615727
C         1.38164077952219   -5.52639514764522    8.17555324479173
H         0.60340796680459   -3.60656030326502    8.70273284156912
C         1.99602661245343   -6.28892071906710    7.19698836949708
H         2.79141415105630   -6.30301516705052    5.20843277442242
H         1.12874131294353   -5.96945970547548    9.12769244469912
H         2.22455599335351   -7.32792224601180    7.38323001141539
