96
 energy: -139.744011920173 gnorm: 0.000164983345 xtb: 6.4.0 (f63f532)
N        -0.92417576461898   -2.04673069557087   -0.35044916513547
C        -2.18531373996483   -1.60025517244851   -0.49440301256866
C        -3.08442227875087   -2.24945213928755   -1.35050088594525
C        -2.67200118103734   -3.34787298091660   -2.07291229733262
C        -1.35903860912852   -3.78796447031076   -1.92552892883169
C        -0.53565858348884   -3.10659949591556   -1.05355999456277
H         0.48748101201741   -3.41800321680216   -0.89695912079498
H        -0.99245785307790   -4.64204642894190   -2.47128125510760
H        -4.09944780382549   -1.90154265052016   -1.44726362324407
C        -2.54526667468920   -0.41832115608287    0.28094940432981
N        -1.60465365990338    0.06262716443670    1.12135485734177
C        -1.89234649556076    1.13671018710842    1.85328967246250
C        -3.10188497811156    1.79846402711838    1.79309321452645
C        -4.07534013850240    1.32575796125321    0.91747363142946
C        -3.78964195602132    0.21136364298078    0.15827334373553
H        -4.52864320118478   -0.16444985211527   -0.52944744513126
H        -3.28289808576954    2.65960834511318    2.41572619787825
H        -1.10134619229969    1.47337461125287    2.50585971491423
Ir        0.42149999999999   -0.81649999999996    0.91330000000003
H         0.87260000000015   -2.23030000000001    1.54050000000001
B         0.40306073815570    0.60449625639230   -0.61104746828536
O        -0.21653931659187    0.30629136909258   -1.81013371716419
C        -0.30252537724415    1.48206597830517   -2.62312030434815
C        -0.01417572256577    1.12262464762006   -4.07847895332407
H         0.91659475177306    0.57110599280738   -4.15942961176117
H         0.04025065679879    2.02435543980947   -4.68294294302727
H        -0.81635168908712    0.49382615251624   -4.45730586857783
C        -1.74143795500074    2.00476135990403   -2.50568997467239
H        -1.89554385176485    2.87419843275312   -3.13772563753288
H        -2.42446169992367    1.21578099137207   -2.81449356349506
H        -1.96524125647786    2.25822661642000   -1.47122570231006
C         0.74419920670726    2.43430198259381   -1.95678135732652
O         0.83728309521788    1.90982296364548   -0.62477403969614
C         2.13903811191662    2.30007632974886   -2.57986771430605
H         2.45027232737619    1.25928980295195   -2.53245195524164
H         2.15307529357539    2.65907886399525   -3.60486478337516
H         2.84170286635990    2.88385556553460   -1.98996498952342
C         0.34282788967633    3.90726171438500   -1.91269144920924
H        -0.55183397413828    4.05529030539451   -1.31589312308149
H         1.14873433366128    4.48241975288097   -1.46314261489076
H         0.17080689717358    4.27548037763295   -2.92087250092677
B         1.57056036642044    0.63932946342717    1.87094438105331
O         2.93809116102517    0.77853749359111    1.87447171890070
C         3.30191174715336    2.05045443892390    2.43123751464102
C         4.56171176129102    1.90435137690082    3.28315528941755
H         4.44815317188418    1.11629332100456    4.02014296377709
H         5.39936227074732    1.64754438524306    2.63978206197078
H         4.78216020724822    2.84254703047860    3.78512306114084
C         3.58889160159250    2.97800038313063    1.24472719209134
H         3.86001145883193    3.97657747643151    1.57420842840137
H         4.41090262873049    2.55933859826552    0.66845244590465
H         2.71267045420802    3.00961060376771    0.60228482371058
C         2.01347882591219    2.46022839192803    3.22266869550172
O         0.99966413220693    1.64548628813656    2.61805631436778
C         1.62000129792538    3.93061077401429    3.09450673514620
H         1.38331709108402    4.17428214488164    2.06421176061287
H         0.73659088267555    4.11629923493537    3.70056878962214
H         2.42638561789544    4.56778129227536    3.44736704313403
C         2.07280213242979    2.08024157549285    4.70765278393105
H         2.30586654823405    1.02437176563050    4.81199267988993
H         2.80957008233960    2.67807809839434    5.23520838534680
H         1.09473254396662    2.25204841777203    5.15105060430749
B         2.27819999999957   -1.33089999999882    0.17410000000038
O         3.10013615156620   -2.30168977823304    0.70661166830490
C         4.38634402153008   -2.26682692383567    0.07376171595348
C         5.32759719068754   -1.54331028935008    1.04278750739428
H         4.90607603391654   -0.57117755882150    1.28222375624666
H         5.38373816842905   -2.12059255130740    1.96231775984502
H         6.32549507847364   -1.43975322763316    0.62840652667694
C         4.88487566778709   -3.69476365881960   -0.14703496365256
H         5.02738648138985   -4.16923805022835    0.82029705380976
H         5.83344033740419   -3.68143258112351   -0.67634964726505
H         4.16577798001818   -4.28328023946783   -0.70691384973140
C         4.10626621322388   -1.45021928471429   -1.23712571402241
O         2.86268012105490   -0.79298241435495   -0.94680153996427
C         5.16134945412807   -0.39757884778392   -1.57236326143748
H         6.13546847862269   -0.86345388435322   -1.69204240336597
H         4.89061763228738    0.09468137926536   -2.50300113428372
H         5.20508761370931    0.35430979966208   -0.79217013630198
C         3.87206218211516   -2.33736013126135   -2.46723958629852
H         3.09219617766245   -3.06569485573867   -2.26263715559805
H         3.53542059218335   -1.70955301291993   -3.28878153445378
H         4.78460562399521   -2.84639514306900   -2.76208358859275
H        -3.35409745397809   -3.85552671491459   -2.73772557429494
H        -5.03212129852227    1.81823301834838    0.83308156498936
C         0.23590000000013   -1.68139999999986    2.96029999999935
C        -1.05898303835514   -2.04616529526234    3.32321267373518
C         1.18888111878207   -1.54039512344151    3.96799465154479
C        -1.39030709208083   -2.16162158902932    4.65874447164006
H        -1.81127167366852   -2.24109154398907    2.57280381152316
C         0.84077085504415   -1.66878432810743    5.30071771372286
H         2.21050128914653   -1.33036545302461    3.69117697010881
C        -0.46441058171927   -1.96856073350826    5.66372975070499
I        -3.39645473839423   -2.66904672919828    5.18323711022658
H         1.58426857908052   -1.54316134457988    6.07487542150576
H        -0.73991405838951   -2.06372505973645    6.70251486785533
