114
 energy: -167.421677140576 gnorm: 0.000313333934 xtb: 6.4.1 (1a32961)
N        -0.96510000000000   -2.11530000000000   -0.24089999999999
C        -2.24699999999997   -1.69840000000000   -0.36219999999998
C        -3.14040000000008   -2.36820000000001   -1.21200000000002
C        -2.70220000000003   -3.47559999999998   -1.93050000000010
C        -1.37779999999978   -3.89880000000002   -1.78759999999995
C        -0.54290000000002   -3.18669999999998   -0.93510000000009
H         0.49809999999999   -3.45630000000001   -0.78940000000001
H        -0.99570000000000   -4.76030000000002   -2.32770000000002
H        -4.16500000000002   -2.02889999999999   -1.31830000000000
C        -2.62130000000000   -0.50950000000006    0.44099999999994
N        -1.62600000000000    0.07329999999998    1.16020000000002
C        -1.89680000000002    1.15240000000000    1.91689999999999
C        -3.17229999999998    1.70329999999999    1.99650000000000
C        -4.20509999999997    1.11740000000006    1.26269999999999
C        -3.92610000000001    0.00249999999998    0.47819999999999
H        -4.71959999999998   -0.46420000000000   -0.09519999999998
H        -3.34630000000000    2.57510000000000    2.62070000000000
H        -1.04450000000002    1.57420000000002    2.43689999999999
Ir        0.42150000000000   -0.81650000000000    0.91330000000000
H         0.87260000000000   -2.23030000000000    1.54050000000000
B         0.50670000000000    0.41560000000000   -0.81540000000001
O         0.19500000000001   -0.04700000000000   -2.09149999999999
C         0.00650000000000    1.10039999999999   -2.95430000000002
C         0.49020000000007    0.74740000000003   -4.35780000000001
H         1.51609999999999    0.37380000000002   -4.33700000000001
H         0.44729999999999    1.62239999999997   -5.01670000000001
H        -0.14739999999996   -0.03390000000002   -4.78430000000002
C        -1.50119999999993    1.39560000000000   -2.96669999999998
H        -1.75369999999998    2.21460000000001   -3.64850000000001
H        -2.03199999999997    0.49449999999998   -3.28930000000001
H        -1.85170000000000    1.65210000000000   -1.96220000000001
C         0.84230000000003    2.20670000000001   -2.22040000000000
O         0.75200000000000    1.78259999999999   -0.83690000000001
C         2.32930000000009    2.18620000000002   -2.59900000000004
H         2.74130000000000    1.18500000000002   -2.45750000000001
H         2.48869999999998    2.51300000000001   -3.63179999999999
H         2.87199999999998    2.86270000000000   -1.93199999999998
C         0.28439999999999    3.62289999999999   -2.33659999999999
H        -0.72650000000002    3.69040000000001   -1.92910000000002
H         0.92129999999998    4.31480000000001   -1.77610000000003
H         0.26430000000001    3.94810000000000   -3.38320000000001
B         1.56299999999998    0.60960000000000    1.84839999999999
O         2.92780000000001    0.55230000000001    2.15019999999999
C         3.36330000000002    1.88660000000000    2.50260000000005
C         4.53140000000000    1.78589999999999    3.47739999999999
H         4.27910000000001    1.16090000000000    4.33689999999998
H         5.39390000000001    1.33789999999997    2.97340000000003
H         4.82390000000001    2.77870000000002    3.83820000000000
C         3.79700000000002    2.56850000000000    1.19670000000002
H         4.20020000000000    3.57090000000000    1.37680000000001
H         4.56739999999998    1.95559999999999    0.72110000000000
H         2.95240000000002    2.63260000000000    0.50539999999998
C         2.05040000000003    2.50089999999999    3.09320000000009
O         1.03750000000001    1.81619999999997    2.31909999999996
C         1.89099999999997    4.00450000000002    2.88649999999993
H         1.87290000000000    4.25440000000001    1.82409999999997
H         0.94940000000002    4.34260000000000    3.33169999999998
H         2.71080000000000    4.55150000000001    3.36629999999998
C         1.82469999999996    2.13200000000002    4.56519999999997
H         1.92610000000000    1.05329999999997    4.71319999999999
H         2.52610000000002    2.65280000000000    5.22539999999999
H         0.80630000000003    2.41580000000000    4.84900000000001
B         2.27820000000003   -1.33089999999996    0.17409999999997
O         2.89460000000000   -2.57739999999998    0.38449999999999
C         4.26929999999999   -2.48200000000001   -0.07209999999995
C         5.10899999999999   -2.05380000000000    1.14010000000004
H         4.76349999999999   -1.08740000000002    1.51750000000000
H         4.98050000000000   -2.79469999999998    1.93590000000000
H         6.17420000000001   -1.99290000000000    0.89300000000002
C         4.71949999999998   -3.84660000000001   -0.58469999999998
H         4.75280000000000   -4.56130000000000    0.24420000000000
H         5.72330000000000   -3.78370000000000   -1.02009999999999
H         4.03500000000000   -4.23600000000002   -1.34170000000003
C         4.16440000000002   -1.36219999999999   -1.16300000000002
O         3.08519999999998   -0.55029999999997   -0.65400000000000
C         5.40720000000003   -0.48870000000002   -1.31549999999998
H         6.27319999999997   -1.09009999999998   -1.61530000000000
H         5.23299999999999    0.26929999999996   -2.08590000000002
H         5.64270000000005    0.02649999999999   -0.38240000000001
C         3.71799999999999   -1.89830000000007   -2.53109999999992
H         2.82529999999995   -2.52159999999999   -2.42740000000000
H         3.46090000000001   -1.05249999999998   -3.17550000000003
H         4.50569999999998   -2.48289999999998   -3.01790000000005
H        -3.38500000000000   -4.00129999999995   -2.59309999999996
H        -5.21400000000000    1.52080000000003    1.29960000000001
C         0.23589999999999   -1.68140000000000    2.96030000000003
C        -0.98448893537119   -2.00763380862883    3.47117335655945
C         1.15645565943842   -1.86261529636884    4.04131674874148
N        -0.90277779480032   -2.35333212504063    4.82627142621165
H        -1.95477423254843   -2.05184291281311    3.00648168363408
C         2.54227240083785   -1.76213376728435    4.16082912394189
C         0.43368411215304   -2.26644970356781    5.18448385029153
C        -1.98189326380203   -2.82987868639556    5.56048374617110
C         3.09654448549728   -2.03735677055554    5.40107577400226
H         3.13302021250689   -1.47188568233088    3.30430520772177
N         0.95059349034645   -2.51866870032542    6.38257210606807
O        -3.11683740273459   -2.77836525643964    5.13605539983937
O        -1.57721145210640   -3.34229064329645    6.72129528718235
C         2.27573855093232   -2.39434814366448    6.46447023129805
H         4.16543762661687   -1.97833994175509    5.55247304036565
C        -2.50854361887727   -3.97337394594660    7.64670801508161
H         2.68637864796181   -2.60507738447214    7.44495346612749
C        -3.21053825479475   -5.15498645288419    6.96982633208227
C        -1.60617821551219   -4.46345872341806    8.78347913079052
C        -3.51991577496110   -2.94444732148816    8.16033516251114
H        -2.46996084011637   -5.83537983568161    6.54715205400880
H        -3.86362936509939   -4.80611754616841    6.17118193492192
H        -3.80683381630398   -5.69236247345276    7.70633192714546
H        -0.88100034604386   -5.17924716610597    8.39796795634974
H        -2.20857001904611   -4.93873992356150    9.55707228440548
H        -1.06231071934602   -3.62168807909407    9.21017347783091
H        -4.13885246896831   -2.57993323154342    7.34159506490141
H        -2.99533482452944   -2.10044086868750    8.60980755202899
H        -4.16028832500605   -3.40721281010511    8.91020367065682
