97
 energy: -145.011189930316 gnorm: 0.000215198745 xtb: 6.4.1 (1a32961)
N        -0.99117971583875   -2.00194534719827   -0.34070073929791
C        -2.21855293323048   -1.47798472768798   -0.51176033959871
C        -3.11500517344691   -2.03261114403458   -1.43338676041496
C        -2.73623196108302   -3.12277918583640   -2.18699764579174
C        -1.46017575070659   -3.64795786776534   -2.00530100642769
C        -0.63519207161267   -3.05310248057560   -1.07266908142514
H         0.36091723043249   -3.43089857392433   -0.89082646313178
H        -1.12095543436149   -4.49879458305079   -2.57310280029290
H        -4.09980779451986   -1.61533392667971   -1.56220983464569
C        -2.54183744259737   -0.30867257229676    0.30048602184178
N        -1.58135515541864    0.12214655082804    1.14447529555378
C        -1.82727206884811    1.18572367647494    1.90588002622328
C        -3.01735473714332    1.88409228608626    1.87524365320781
C        -4.01308328294189    1.46139763009051    0.99950768083795
C        -3.76884226320735    0.35867454909904    0.20845737114829
H        -4.52813551645172    0.02033581939823   -0.47659451427315
H        -3.16689127193715    2.73423284547939    2.52070746598561
H        -1.02130852458327    1.47805189798680    2.56186496583505
Ir        0.42150000000009   -0.81649999999990    0.91329999999996
H         0.87259999999995   -2.23029999999995    1.54050000000008
B         0.38033351207866    0.59250371043379   -0.61676094936094
O        -0.12974736355682    0.25719403288633   -1.85415861269721
C        -0.23599603820958    1.42796633856993   -2.67410116985927
C         0.19528841498695    1.09458784896804   -4.09962428136042
H         1.16514058079141    0.60871676237897   -4.10030105301671
H         0.23744725997454    1.99965025776070   -4.69996998990358
H        -0.52725166249414    0.41266208188490   -4.54118265890380
C        -1.71353653344780    1.84514449596067   -2.67435536645985
H        -1.87829489440944    2.70135055588409   -3.32167310190901
H        -2.31088220732195    1.00904081476023   -3.03236716709033
H        -2.03668611195613    2.08234795124396   -1.66261861238000
C         0.68259706756639    2.44923774940478   -1.92641551314807
O         0.69581395337148    1.93151445700896   -0.58779801193012
C         2.13064899132780    2.40516190644238   -2.42800065070396
H         2.50134503483311    1.38565832782766   -2.35221850500664
H         2.20826689378046    2.76866476331704   -3.44843224993784
H         2.74286594975557    3.02877969602918   -1.78146711977524
C         0.18222726406794    3.89184826558705   -1.92567837269334
H        -0.77113239286412    3.98005800552693   -1.41391646504195
H         0.90424099575946    4.51859679704221   -1.40790661678341
H         0.07923086407992    4.24868886647195   -2.94716140134312
B         1.61839076201914    0.63711596380843    1.82888046797649
O         2.89205912681260    1.03322106352856    1.54734542588010
C         3.25099159850277    2.20372547146581    2.29718496987761
C         4.60261865420342    1.96116948355786    2.97197928868822
H         4.59369806856496    1.02148131562262    3.51564447937914
H         5.37304967618626    1.89764402393110    2.20783503392692
H         4.84589432996546    2.77811230476590    3.64465092879668
C         3.38835391796535    3.34677080750259    1.28522493635291
H         3.61779658312534    4.28678285006864    1.77756319200083
H         4.19457068684892    3.10166166852045    0.59783736724267
H         2.47158835076456    3.43276325651911    0.70936136495838
C         2.04488445164891    2.38321011293522    3.29427592052563
O         1.09741747720218    1.40254062297617    2.84822076663123
C         1.36669335817278    3.75491797861588    3.23652226534330
H         0.96864038862017    3.94294940197223    2.24463760043418
H         0.54065431305958    3.76623169839073    3.94375851830865
H         2.06718431118066    4.53931197847771    3.50676296175796
C         2.38438625544939    2.06856029749336    4.75576665833885
H         2.83478152157520    1.08533343716903    4.84226578028539
H         3.05769068922372    2.81559819282212    5.16461583571901
H         1.46263586147825    2.07097967496668    5.33337157790302
B         2.27820000000031   -1.33089999999975    0.17410000000040
O         3.12681000128594   -2.25104562596812    0.74540827102349
C         4.40202469672008   -2.21730087941942    0.08650978545172
C         5.32902332947956   -1.38029666878329    0.97100183135170
H         4.89986248208487   -0.39078986215593    1.09569153480572
H         5.37393371519628   -1.84034272986316    1.95442614271712
H         6.32939617801504   -1.31855950623014    0.55410155129817
C         4.95216701797782   -3.63761690954007   -0.03124776491968
H         5.14329390876233   -4.01917990266946    0.96805972785519
H         5.88312598381957   -3.63143141883844   -0.59111208854223
H         4.24196530556997   -4.29960429759872   -0.51563854464183
C         4.06508079775185   -1.51690340574041   -1.27563053671914
O         2.82196336454922   -0.85200796557246   -0.99296634289998
C         5.09319643625766   -0.48599913928557   -1.73637550312086
H         6.07187786718572   -0.94758844978216   -1.83216294802788
H         4.79461988691824   -0.09075008505769   -2.70419855280903
H         5.14235634673608    0.33763851544260   -1.03274187249193
C         3.79769267732939   -2.50868677791189   -2.41554876658710
H         3.04929397640757   -3.23553789312699   -2.11220087259480
H         3.40650806130874   -1.96041479937182   -3.26916581971472
H         4.70982407454084   -3.01916432858042   -2.70892513256952
H        -3.41659730206811   -3.55721989142109   -2.90349327848686
H        -4.95633489615220    1.98274329666156    0.93888659672012
C         0.23589999999937   -1.68140000000047    2.96030000000151
C        -1.07829026595355   -2.02800731629592    3.27827746935534
C         1.14288685280962   -1.57124329900837    4.02586746551006
C        -1.48775674289523   -2.13377673568799    4.59417445669539
H        -1.79977415359640   -2.21388958607392    2.49729738514243
C         2.52682085944519   -1.36856230691222    3.84043388461479
C         0.71754745288252   -1.69421727881949    5.35401993106330
C        -0.60413311472260   -1.95632659136589    5.64968321092401
Cl       -3.15118422088449   -2.50869563265898    4.93528376975596
N         3.66996771894264   -1.25090124444155    3.85413169296209
H         1.43768467041057   -1.58645067706752    6.15186944120984
H        -0.94065587982978   -2.04213134153754    6.67007335089733
