107
 energy: -150.864023586566 gnorm: 0.000266236924 xtb: 6.4.1 (1a32961)
N        -0.93097592476480   -2.05482649318607   -0.32411486407840
C        -2.18669473671452   -1.59128249227141   -0.47972571239509
C        -3.07919806864787   -2.21393183051430   -1.36267950756981
C        -2.67409402817586   -3.31218479471696   -2.08789388063025
C        -1.37160232793864   -3.77851861552467   -1.91825766242075
C        -0.55082079908755   -3.11639309876874   -1.03045562054075
H         0.46512020480415   -3.44568231714422   -0.86256193829847
H        -1.01220636668607   -4.63675867982315   -2.46263363843248
H        -4.08419707228304   -1.84260595650917   -1.47915803503947
C        -2.54364187076099   -0.42649843878003    0.31736846973622
N        -1.59096865505480    0.04602055513829    1.15072470392224
C        -1.87820771981251    1.09697874218230    1.91549466604413
C        -3.09562719460913    1.74565810433864    1.89493016654228
C        -4.08087121296898    1.28475563320104    1.02441803606733
C        -3.79763870355227    0.19253601176976    0.23395162839250
H        -4.54626212692989   -0.17707998958176   -0.44727192148843
H        -3.27437941047477    2.59004738108464    2.54094633421349
H        -1.07839644679070    1.42765830917422    2.55955529099755
Ir        0.42149999999998   -0.81649999999989    0.91330000000001
H         0.87259999999998   -2.23030000000007    1.54050000000008
B         0.42538926492560    0.56381395621569   -0.64621638489893
O        -0.20172329917956    0.22670750181401   -1.83415862991130
C        -0.27836448320284    1.36868831095555   -2.69158103537863
C        -0.00419156444386    0.94735875448316   -4.13340519367831
H         0.91921065611640    0.38115551084220   -4.19705459577430
H         0.05691950249385    1.82250721840052   -4.77532934110135
H        -0.81644148857329    0.31285237850973   -4.48029916995335
C        -1.71107315694302    1.91154298117183   -2.58637311552663
H        -1.86204375510596    2.75689765973261   -3.25117310203441
H        -2.40343129959355    1.11680735257562   -2.85778591592441
H        -1.92404202415579    2.20652584727522   -1.56074037625407
C         0.78349468090867    2.33379546124441   -2.06938200615451
O         0.88042903592991    1.86179957782308   -0.71924259613624
C         2.17230626905175    2.16043409248108   -2.69701308106325
H         2.47442914582319    1.12009614565643   -2.60441009855428
H         2.18206082919342    2.47321507949696   -3.73725450863257
H         2.88486697146608    2.76305954762642   -2.13850947966295
C         0.39805467737876    3.81187632727441   -2.08239681453468
H        -0.49140582019592    3.99291707002342   -1.48705712282877
H         1.21248391638527    4.39571536062050   -1.66027014450713
H         0.22411231516890    4.14114991323540   -3.10377091835285
B         1.58072540181388    0.63590375171082    1.86201475699688
O         2.95471211555757    0.69744465274527    1.94646118964130
C         3.35940275071250    1.99444105260737    2.40412823724558
C         4.56444745330630    1.86700051211343    3.33464179789042
H         4.36585061921978    1.16450501545150    4.13709345993442
H         5.41580867683217    1.50009242604548    2.76688908444490
H         4.81601322771320    2.83766053851157    3.75382604441365
C         3.75537087812368    2.79050442606506    1.15432999038438
H         4.06701464963281    3.80069073385482    1.40310782970863
H         4.57830176348949    2.27662467763604    0.66284643959568
H         2.91373814538316    2.80509745424941    0.46632395528270
C         2.05660901180775    2.54178376116434    3.07932338340316
O         1.03210404398060    1.73707487091923    2.48305207386212
C         1.76350021433559    4.01583854080257    2.80391877143079
H         1.59186773358558    4.17642338175010    1.74489851810664
H         0.86522246342772    4.30817879785711    3.34213104549466
H         2.59143085135083    4.63373898289025    3.14101519894640
C         2.01072379369895    2.28938769674478    4.59223731181351
H         2.16232396099802    1.23326490960555    4.79781168367512
H         2.75986889236399    2.88030799337503    5.11046509426720
H         1.02602513795195    2.56536550301645    4.96222488166651
B         2.27819999999972   -1.33089999999983    0.17409999999985
O         3.06042863087935   -2.36000297698503    0.66329969730913
C         4.35306553507738   -2.34006219114519    0.04694351341106
C         5.30278204388859   -1.66938906683803    1.04568535752208
H         4.90222162062047   -0.69419107364249    1.30818466549761
H         5.33256492732492   -2.27250277628388    1.94958319283685
H         6.30770415049928   -1.58012052359937    0.64461652375111
C         4.81853241573445   -3.77230971384960   -0.21454169663915
H         4.93995939880123   -4.27983327205453    0.73874541515138
H         5.77197060910650   -3.76605064471127   -0.73546793914342
H         4.08982756873698   -4.32432990334623   -0.79861173459495
C         4.10741444310823   -1.47515841037487   -1.23754093496426
O         2.90035853675108   -0.76756769571675   -0.91875160371125
C         5.21396035404856   -0.47169319638441   -1.55663176203091
H         6.16055878649020   -0.98641247311306   -1.69701530325214
H         4.96226489849769    0.05836781791378   -2.47178295483249
H         5.30543464297919    0.25648059349811   -0.75842965585299
C         3.81958345102556   -2.31970223021517   -2.48697308501311
H         3.00681910986841   -3.01352571924527   -2.28991841889223
H         3.50538424765981   -1.65665543270094   -3.28970142070423
H         4.70360531008839   -2.86483254495501   -2.80380766266342
H        -3.35166926255583   -3.80048090883766   -2.77191062485106
H        -5.04404557005797    1.76953719072744    0.96923379629265
C         0.23589999999907   -1.68139999999920    2.96030000000139
C        -1.01320945015570   -1.99699657763697    3.54086912827629
C         1.11526137240844   -1.51792527688021    4.00869770567180
C        -0.86276920556110   -1.96817480387240    4.90689283637935
H        -1.92918642000428   -2.21470357810477    3.02505355600061
N         0.42964136765328   -1.67330685598752    5.16642339862496
H         2.16305478027133   -1.30254072538144    4.00380697720271
H        -1.56802001823017   -2.12823092370430    5.69641786474983
O         1.01490883901431   -1.52880634923941    6.39801671798437
Si        0.55664722027583   -2.14146580018306    7.87764634906368
C        -0.98520102310388   -1.24389324416221    8.55768244604380
C         0.25316045726866   -4.02100598769130    7.78739503464185
C         2.10820527992722   -1.68851393332762    8.87263220983603
H        -1.90832263048328   -1.60740264167222    8.11400162619085
H        -0.92764460214252   -0.17627550996417    8.36208413080680
H        -1.07285622034573   -1.37509130535830    9.63151254201828
H        -0.57610284846307   -4.26070533948890    7.12679408443523
H         0.02467984582937   -4.43753380257445    8.76288601056012
H         1.12958187211730   -4.53778786907459    7.40539745309380
H         2.26685401854792   -0.61533487263523    8.88803178234391
H         2.99660812729638   -2.14565207384343    8.44974337369135
H         2.01634950220388   -2.02500311851034    9.89943211559323
