99
 energy: -155.869181699908 gnorm: 0.000229902504 xtb: 6.4.1 (1a32961)
N        -0.85970490166775   -1.92498636241059   -0.54369905420723
C        -2.07297839205085   -1.38804457548396   -0.75469399761774
C        -2.89088261955610   -1.84924417011039   -1.79206619708979
C        -2.45431461010164   -2.87285018419166   -2.60607998078517
C        -1.19796918003261   -3.42036958022548   -2.37216948218415
C        -0.44611795676978   -2.90697234081443   -1.33462234644916
H         0.53644930958280   -3.29835707725985   -1.11449182993235
H        -0.81726840265569   -4.22435436503999   -2.98046934765574
H        -3.86030951437646   -1.41259663896573   -1.96524624589925
C        -2.47908891433287   -0.31620001735675    0.15205675179415
N        -1.58618357933167    0.05742535350579    1.09109286956276
C        -1.92622893785103    1.01082375616086    1.95517669944743
C        -3.14777503951755    1.65279869467134    1.94099403917062
C        -4.07362120139811    1.29078347826365    0.96900045317072
C        -3.73190632265001    0.30056903229419    0.07224267823983
H        -4.44138163803403    0.00366626059629   -0.68143268205384
H        -3.37244322467496    2.41141153979157    2.67281932536619
H        -1.16848895794380    1.26971973249187    2.67900797079934
Ir        0.42150000000009   -0.81649999999980    0.91330000000077
H         0.87259999999998   -2.23030000000007    1.54049999999989
B         0.49197704893152    0.64441937304013   -0.58899849981999
O        -0.21457687010673    0.45767309637821   -1.76007445278624
C        -0.21544309173443    1.66517885146604   -2.53141573625873
C        -0.05931189113037    1.32691214513722   -4.01147866815594
H         0.80375041885917    0.68988647674973   -4.17256113464795
H         0.04424377505469    2.23844160208444   -4.59406989373348
H        -0.94408309071244    0.79222416707586   -4.34858916600678
C        -1.57682866202902    2.33799536529153   -2.30620529313716
H        -1.66906305790266    3.24507859075502   -2.89578193331548
H        -2.36062675967990    1.64255067027626   -2.59960617720635
H        -1.71020873037491    2.56880458082013   -1.25119864306199
C         0.97027951394620    2.46945918674811   -1.90419015310436
O         1.08273594436947    1.88378266068464   -0.59721132558281
C         2.30045660016629    2.20766699039735   -2.61989161547667
H         2.49392166975964    1.13792502202865   -2.62993456918282
H         2.29125570056430    2.60503153191584   -3.63045439449158
H         3.10003230972825    2.68576058473482   -2.05901172952120
C         0.73864110927017    3.97412026037017   -1.78319606027323
H        -0.09132284752269    4.19248265905900   -1.11831269217175
H         1.63216644400010    4.44150578413505   -1.37611696912278
H         0.53905403392841    4.39876952367954   -2.76357610196454
B         1.54251411964240    0.67783957856668    1.85042386723572
O         2.90616860472092    0.79136211300139    1.89374812907775
C         3.29078222521925    2.06450042917501    2.43461761462806
C         4.44894640172807    1.86921027260008    3.41320647838243
H         4.19402974023312    1.15323276461897    4.18691004163325
H         5.30824837792445    1.48514194924838    2.86975020531711
H         4.71817037942065    2.81788625414646    3.86894318480486
C         3.76619979213023    2.91471591003770    1.25109373840922
H         4.03554658645804    3.91907706165644    1.56279099601268
H         4.63826409617102    2.43751926424066    0.80978294164797
H         2.98157572489909    2.94348614952039    0.50060335110043
C         1.95838298707153    2.58956075224868    3.08139596224982
O         0.95885130040430    1.72825566903111    2.51380148241417
C         1.61038564686323    4.03769742198003    2.73959339116806
H         1.47362753024873    4.15154718229938    1.66952526754046
H         0.67868691190888    4.30442547769709    3.23222523653410
H         2.39296003692654    4.70664465410823    3.08620977508582
C         1.90201626926199    2.40350058824930    4.60242390208879
H         2.06465598216883    1.36039881322303    4.85780825736456
H         2.63896376314453    3.02626945476840    5.09933316642601
H         0.91143196137867    2.68423595135040    4.95253722117776
B         2.27820000000128   -1.33089999999968    0.17410000000126
O         3.17595466299568   -2.14783931072149    0.82380598343724
C         4.42086856414758   -2.19104614323987    0.11247826553514
C         5.39043110210380   -1.27960830477811    0.87170019627174
H         4.94519196643447   -0.29368751789858    0.96622811249323
H         5.52723715796532   -1.68173256873122    1.87227411512417
H         6.35506041828898   -1.22229448348839    0.37743906480319
C         4.95880696911329   -3.62180655756110    0.12014557018991
H         5.17938822333453   -3.90638137046540    1.14543960504492
H         5.87091274703804   -3.68190841297752   -0.46666687894669
H         4.22819387113825   -4.32178332416980   -0.27118696325311
C         4.03061473945617   -1.63541118000257   -1.30296819723446
O         2.77501302709138   -0.97772534959079   -1.05667764768344
C         5.01772675378330   -0.62781186040962   -1.88899999401526
H         6.00301384075216   -1.07603985966176   -1.98052470840543
H         4.67717406979371   -0.32789143288313   -2.87679854424039
H         5.07209300895450    0.25769478259588   -1.26529759127795
C         3.76742347649696   -2.73848118430449   -2.33625337055776
H         3.04067815114644   -3.44901867571297   -1.95246652516545
H         3.35203890433979   -2.28366208015579   -3.23215948031957
H         4.68567741352230   -3.25643028765969   -2.59517415731391
H        -3.07832760321070   -3.23988558671545   -3.40670563430362
H        -5.03986440921524    1.76853731930466    0.91731079022871
C         0.23590000000026   -1.68139999999863    2.96029999999928
C        -0.95795092981094   -2.12071992835843    3.54946746360250
C         1.28557887605716   -1.40550153527410    3.85594002368304
C        -1.15819094673654   -2.08561635051445    4.93323818190361
C        -2.10375663774826   -2.70381359193748    2.78373759152696
C         1.11986987256447   -1.39289698732559    5.22357672718776
H         2.25914226500420   -1.19788160033509    3.44191619969339
C        -0.12892304581680   -1.69051807206883    5.75486958751416
H        -2.11059100063665   -2.38172244217336    5.34770326210000
F        -2.70146142134611   -3.71342475489290    3.46421442277145
F        -3.11363292013379   -1.83144805837087    2.53958037193047
F        -1.77914069060985   -3.23939426815823    1.60141280258589
H         1.94225782106134   -1.16076861411078    5.88283990127790
Br       -0.41004398927657   -1.60414694856244    7.63794370673079
