103
 energy: -147.337304755943 gnorm: 0.000657399564 xtb: 6.4.1 (1a32961)
N        -0.85305346322868   -2.17535612542263   -0.32108089964532
C        -2.14455593865227   -1.82859873974261   -0.46859068491479
C        -3.02803314697051   -2.63511148623930   -1.19957464474395
C        -2.56646333205523   -3.78302652002673   -1.80458582643542
C        -1.22032454369474   -4.11364441521888   -1.66572399886911
C        -0.41671692550542   -3.28422652507245   -0.91065528494196
H         0.62864218028250   -3.51088243661215   -0.75607504495497
H        -0.81543519992863   -5.00171798412119   -2.12325379304018
H        -4.07007384507629   -2.37185058971441   -1.28035995835537
C        -2.56280948741061   -0.59056822665382    0.17480911022615
N        -1.66833750089641   -0.00737204013429    0.99960701995769
C        -2.01834536687913    1.11384455120835    1.62473775100371
C        -3.24602985143585    1.72362757950372    1.46742041817596
C        -4.16788532452645    1.15041300032278    0.59462499730094
C        -3.81735450303553   -0.01205796975494   -0.05674943817521
H        -4.50880333435303   -0.46220889120098   -0.75019172831908
H        -3.48007259622147    2.62476859182086    2.01104696859677
H        -1.26611274839088    1.52922114039210    2.27675424756426
Ir        0.42149999999998   -0.81650000000004    0.91330000000022
H         0.87260000000008   -2.23029999999987    1.54049999999970
B         0.33961429913426    0.55840742188676   -0.64554224203259
O        -0.10335119733844    0.13542201656363   -1.88835359142420
C        -0.34275625529751    1.26414795931154   -2.73531929768889
C         0.12782003245426    0.94804154373416   -4.15332834646399
H         1.15588253389904    0.60165467142579   -4.15192947015838
H         0.03868490436692    1.82969562458030   -4.78294816145322
H        -0.49592485666347    0.15763613191474   -4.56499140524729
C        -1.85934905210664    1.50578578497596   -2.75463873407387
H        -2.11745128054378    2.31938954116632   -3.42624509946795
H        -2.35382472473406    0.59688291491738   -3.09249176982062
H        -2.21805560037570    1.73138355434501   -1.75250109962222
C         0.44078961738496    2.40805292474850   -2.00995995805465
O         0.52928851421952    1.92183740899347   -0.66442408183213
C         1.87817131867237    2.55336054759226   -2.52528925932497
H         2.39067141870502    1.60035844508704   -2.42061206413362
H         1.89811291472068    2.88788334335593   -3.55862309098560
H         2.40032278388072    3.28004044030608   -1.90751308753978
C        -0.24443537688107    3.77321856419757   -2.02614322582295
H        -1.19665644302499    3.74359621363796   -1.50555483384958
H         0.39274277312615    4.49606273603589   -1.52224939851443
H        -0.40160274861811    4.09898002901675   -3.05127684664247
B         1.41704640913980    0.73485151347467    1.89146425320239
O         2.76585380410847    1.00476046449474    1.89274830119065
C         3.01103599430824    2.30416853420774    2.44264615991345
C         4.28252927843778    2.27069765284831    3.28851735747181
H         4.22787390127972    1.49471738837138    4.04455293691612
H         5.12860436079090    2.05824938532308    2.64047145282852
H         4.43893461024280    3.23378515402600    3.76677513516331
C         3.21098909274915    3.24744396854461    1.25107883585470
H         3.41045777232770    4.26528359374366    1.57322160656369
H         4.05179424692866    2.88374320500503    0.66570086407695
H         2.32658768817567    3.21038713184001    0.62058667461140
C         1.69217827112909    2.59583430123593    3.23553076529699
O         0.75835776786255    1.68786047289734    2.63709080396753
C         1.16546551866134    4.02386076681583    3.09939794419157
H         0.89665546568724    4.23583117996399    2.06980230912243
H         0.27607067142730    4.13594476493139    3.71483165742439
H         1.91529822157322    4.73451578156498    3.43629634487791
C         1.79016626412311    2.23390730509435    4.72260529506848
H         2.11678449386355    1.20457370807379    4.83886950776754
H         2.47208832093393    2.90030695608345    5.24215230677107
H         0.80253784889470    2.31923003655047    5.16971390033652
B         2.27820000000053   -1.33090000000023    0.17410000000150
O         2.69562454912221   -2.65263521229297    0.10291733118042
C         3.87617649037061   -2.78388318887563   -0.69827098853473
C         5.04366396127223   -3.11703115509557    0.23831984308764
H         5.18253344287835   -2.32322065378882    0.96454686087326
H         4.80742513737182   -4.03261685370641    0.77469110708414
H         5.95894153629566   -3.26686231603918   -0.32573637350607
C         3.68151466406097   -3.95197204432398   -1.66774412695304
H         3.55509315834638   -4.86468572743734   -1.09049573589127
H         4.55204060424153   -4.06079379634623   -2.30820956353148
H         2.79641557802084   -3.81181559322713   -2.27955447066826
C         3.99984609506432   -1.37051831968525   -1.37360153870600
O         3.10720287892087   -0.55743969711223   -0.60102304390746
C         5.40147034886048   -0.76152398324632   -1.34214945290149
H         6.10043547602843   -1.39948694568682   -1.87574821175012
H         5.37171449378888    0.21082014712298   -1.82677195321920
H         5.73987764259744   -0.61700673450616   -0.32240709927285
C         3.48218983136994   -1.34902839019585   -2.81942363303438
H         2.43521668132693   -1.64161870967998   -2.84172228509553
H         3.55340318819220   -0.33228733873968   -3.19864953160214
H         4.06874819199590   -2.00036086292049   -3.46003496076703
H        -3.23682541093020   -4.41377514356592   -2.36885861893039
H        -5.13314323399628    1.60504382213387    0.42832527346943
C         0.23590000000086   -1.68139999999809    2.96030000000043
C        -1.10399437122121   -1.90922861840195    3.23791522466994
C         1.07918483408543   -1.58363838196414    4.07658629689372
C        -1.63213135958343   -1.86039366592236    4.53281761707351
H        -1.79495417142437   -2.12774661252429    2.43586397704680
N         2.44436215261752   -1.55249344834556    4.19265026639124
C         0.54712400384366   -1.50657882977928    5.39740904554777
C        -0.82594828913094   -1.61895858514946    5.61754940697064
H        -2.69609135065681   -2.00523272074086    4.66817349403122
C         3.41491083477368   -1.78829110231613    3.15987187046828
C         2.76941450519754   -1.42990140245073    5.51063942235991
C         1.64854329206496   -1.38431211671396    6.28329030868066
H        -1.22828288463026   -1.54954733528216    6.61819540470896
H         3.43755155900801   -0.95755934492146    2.45376952142170
H         3.16017445396449   -2.69325194840901    2.60919464134158
H         4.39085938167097   -1.91010248753953    3.62761048177004
H         3.79939113333331   -1.39336303476545    5.81381896266155
H         1.60215277247338   -1.29339770115451    7.35068155312905
