93
 energy: -135.192438386359 gnorm: 0.000235186371 xtb: 6.4.1 (1a32961)
N        -0.93309735264475   -2.04320674884814   -0.32933669712007
C        -2.19308528356218   -1.58832647169426   -0.45533014926656
C        -3.07347303583803   -2.15600111081964   -1.38449094357593
C        -2.65407955595978   -3.20300785534727   -2.17618132215195
C        -1.35171747718712   -3.67160756745877   -2.02488627604091
C        -0.53908479065092   -3.05649126292088   -1.09559295027928
H         0.48003348131539   -3.38383447200963   -0.94510126745332
H        -0.98206592451644   -4.49239002968836   -2.61772809039343
H        -4.07607089572667   -1.77679176418557   -1.49370760928390
C        -2.56955661129244   -0.48132470371973    0.41725279123280
N        -1.59406929583919    0.03348554082006    1.19295870337229
C        -1.89034154584582    1.04145543297970    2.00842240085080
C        -3.15162201884424    1.59431342558419    2.10998223071968
C        -4.16936292919448    1.07589879675235    1.31515473117585
C        -3.87077683355120    0.03356352409183    0.46364248546994
H        -4.64745097341927   -0.38457997166616   -0.15473968356089
H        -3.33636390917818    2.40494900667001    2.79613390987913
H        -1.06508342269512    1.41762728551973    2.59342978238981
Ir        0.42149999999993   -0.81650000000015    0.91330000000002
H         0.87259999999993   -2.23029999999988    1.54050000000012
B         0.42316115816478    0.54369510122803   -0.66176726157910
O        -0.15065781628578    0.19351024411353   -1.87061806124326
C        -0.22013741726251    1.33450702940274   -2.73197555159161
C         0.13605598246898    0.92045776334922   -4.15772446247908
H         1.08164486727129    0.38898424110547   -4.17631332090591
H         0.19368144857116    1.79568541454251   -4.79966714854365
H        -0.63505753276348    0.25499157097392   -4.53832713373656
C        -1.67221473185627    1.83278188509260   -2.69696272765477
H        -1.81363333042567    2.68071265220930   -3.36052406984012
H        -2.32527853926600    1.02158584561367   -3.01292939802400
H        -1.94673842397863    2.10984113809534   -1.68109663467959
C         0.78249399384416    2.33131632542377   -2.06114996171247
O         0.84179618888872    1.85330273580278   -0.71023267448417
C         2.20090821334664    2.21081947130299   -2.63202127304803
H         2.53767859972079    1.18244953656031   -2.52683488433192
H         2.24044234024953    2.52525501462069   -3.67092585481591
H         2.86710457281490    2.83945833552504   -2.04590431720604
C         0.34780733790532    3.79562721236214   -2.07879315613551
H        -0.57512859289818    3.94105248520812   -1.52626948014278
H         1.12055533115118    4.40085382232538   -1.61103079664350
H         0.21357604715075    4.13069212197399   -3.10413150271935
B         1.58469658104083    0.63481347984966    1.86601666853448
O         2.95549077118299    0.72782498872241    1.91886052219479
C         3.33942967502338    2.01858984705650    2.41592260608346
C         4.57019456831766    1.88767552933264    3.31097366636652
H         4.41330977240064    1.14373532548831    4.08478746975730
H         5.41810962202500    1.57386238737675    2.70768831653247
H         4.80185541290343    2.84590359628116    3.76817558874391
C         3.68156299953782    2.87154888755064    1.18846853943434
H         3.97455461038390    3.87863119561038    1.47009003641632
H         4.50318660795528    2.39884352556923    0.65537813944778
H         2.82124866248970    2.89188481725423    0.52423997566219
C         2.04066450316051    2.50484407944225    3.14309099859755
O         1.02203568502555    1.69937837858999    2.53464213853258
C         1.70427127037059    3.98102498030895    2.94062212128817
H         1.50564933708120    4.18592037896125    1.89407146779230
H         0.81136956996852    4.22502955602065    3.51094475594719
H         2.52385151351526    4.60366454619178    3.28891067475527
C         2.03627280155078    2.18362277601979    4.64309752372834
H         2.23194612358989    1.12582779116493    4.79580283866767
H         2.77363060655581    2.77916122499301    5.17262281807797
H         1.04985455906675    2.40275259842239    5.04528358923188
B         2.27820000000038   -1.33089999999957    0.17410000000028
O         3.05234707615985   -2.36220024565726    0.66832413435015
C         4.35939806853405   -2.33035615010712    0.08049756579723
C         5.28495972622658   -1.67771185657696    1.11299846575254
H         4.87902012904051   -0.70697830848611    1.38339406454582
H         5.29351786473807   -2.29688795724788    2.00641641585909
H         6.29894679060758   -1.58243592599334    0.73721142427998
C         4.83110301166073   -3.75783966824278   -0.19498375820554
H         4.92850157098506   -4.28208824693331    0.75198750591056
H         5.79748449054838   -3.74277305672274   -0.69104872922599
H         4.11761602303013   -4.29944874090287   -0.80687702673952
C         4.14169796897440   -1.44295492022809   -1.19428547688155
O         2.91740052952700   -0.75310505423860   -0.89807231523148
C         5.24426183938267   -0.41959099843953   -1.45881809062876
H         6.20088836544136   -0.91937792769011   -1.58333010271617
H         5.01195036333011    0.12787973346541   -2.36877614606600
H         5.30293678415754    0.29067378958236   -0.64169619798453
C         3.90059378937880   -2.26333742787394   -2.46887664770464
H         3.08953103228030   -2.96915402409837   -2.31224370057595
H         3.60504766393315   -1.58610022488080   -3.26670374968510
H         4.79955556876181   -2.79304923984891   -2.76904615285977
H        -3.32187165146025   -3.64764387841368   -2.89830713178513
H        -5.17058462446556    1.47682338258636    1.36341826831347
C         0.23589999999837   -1.68140000000014    2.96029999999981
O        -1.04261668167448   -2.03587321225205    3.25006423528531
C         0.95707726633560   -1.63149930889076    4.12286883181233
C        -1.14198604361654   -2.16842480233929    4.59183591988522
C         0.05946907938804   -1.92755353691491    5.17971485676896
H         2.00033792755986   -1.40555611627593    4.20175489868683
H        -2.10427465696208   -2.42643242351601    4.98907298242919
H         0.28239834662829   -1.96336857652724    6.22731297899466
