111
 energy: -163.157630427853 gnorm: 0.000353275370 xtb: 6.4.1 (1a32961)
N        -0.95153199303290   -2.03623165312516   -0.31005538388396
C        -2.22049977429632   -1.60076266333635   -0.37206544641945
C        -3.13966758923997   -2.18816878041727   -1.24961782818706
C        -2.74932869283947   -3.23954383268234   -2.05097572891804
C        -1.43506684642688   -3.68871318586919   -1.96446270648098
C        -0.58352567425101   -3.04944161427087   -1.08689059496238
H         0.44856445814979   -3.35665841620164   -0.99273833891041
H        -1.08519212286618   -4.51098605967993   -2.56726220565231
H        -4.15086399190410   -1.82102248930530   -1.31191930175511
C        -2.57527429928446   -0.49968991468717    0.51693614376685
N        -1.57603070148587    0.03914174866341    1.24013080917954
C        -1.85685233477015    1.02868317023711    2.08119904154001
C        -3.12745443206606    1.53912014687639    2.26124723162972
C        -4.17044463981683    0.99628383152037    1.51886513529913
C        -3.88606003910764   -0.02558121426453    0.63871057665252
H        -4.68468265751603   -0.46308679036158    0.06405050589124
H        -3.29923269595013    2.33410436049402    2.96936116479502
H        -1.01320714544890    1.42403576806569    2.62650047524292
Ir        0.42149999999996   -0.81650000000000    0.91330000000003
H         0.87260000000001   -2.23029999999997    1.54050000000012
B         0.34921430545655    0.58920060457909   -0.62379251189918
O        -0.39943269227323    0.31724094909539   -1.75651135716050
C        -0.53568818633109    1.50170869056151   -2.54845885064447
C        -0.44185980353426    1.14601645716630   -4.03007865964332
H         0.44387476286602    0.55118554320269   -4.22691299974280
H        -0.41581726588465    2.05118316110746   -4.63129210817960
H        -1.31390496526031    0.56093599133393   -4.31224336775831
C        -1.92699480345416    2.08036221662393   -2.25149352392315
H        -2.12354273815820    2.96236894155062   -2.85395711264760
H        -2.67456798002928    1.32216521134301   -2.47675838806103
H        -2.00927009865547    2.32959205633108   -1.19522825022272
C         0.62102366315663    2.40376551550813   -2.00820657081925
O         0.83598376800123    1.87463934457598   -0.69238274298796
C         1.92989092185898    2.20299805819441   -2.78166524915454
H         2.18905724519840    1.14699611819998   -2.77339142574579
H         1.84977996032185    2.57062870553912   -3.80055763357011
H         2.72283486429725    2.74265435467697   -2.26943034707564
C         0.29594763902667    3.89372928303882   -1.92691425110790
H        -0.51266883011221    4.08190821285076   -1.22748319936893
H         1.17550082419346    4.43175057809338   -1.58146777279329
H         0.02009583748605    4.26842149799360   -2.90939038659087
B         1.60195117952807    0.65394361795044    1.81876813178622
O         2.97001727572701    0.79079093256682    1.77879425749565
C         3.35511980539271    2.07742943720713    2.28285779101385
C         4.63960011430930    1.95424142719023    3.10118536342389
H         4.54590330376584    1.18826367844839    3.86363399910132
H         5.45740982017427    1.67629714245243    2.44137101291715
H         4.87612648307799    2.90667524374541    3.56787710456330
C         3.61001924187853    2.96575876799433    1.05908955644950
H         3.88920543138392    3.97468683968314    1.34801658686512
H         4.41713553269311    2.52811066838729    0.47594106270891
H         2.71756752681200    2.97492405421050    0.43870634596322
C         2.09261668269641    2.51598300694842    3.09923445329749
O         1.05806977956399    1.69035160826842    2.54791644345700
C         1.70314148379813    3.98453732928914    2.94064299340838
H         1.43986454296623    4.19925913713717    1.91035266891889
H         0.83730112944081    4.19291445636252    3.56449966232329
H         2.52255182766491    4.62643300569814    3.25257246846796
C         2.19504445197414    2.17509829863298    4.59158561886419
H         2.42231132741577    1.11979027157068    4.71499148026530
H         2.95262144348139    2.78003217652562    5.08031203498831
H         1.23268627767375    2.36600081872567    5.06090439683753
B         2.27819999999963   -1.33090000000102    0.17410000000036
O         3.15136555668566   -2.23070478525107    0.75064153409773
C         4.40432262273597   -2.23429528445596    0.05465802446469
C         5.38704973587502   -1.43233248740614    0.91421612098711
H         4.96258988609202   -0.45187976028765    1.10797330955023
H         5.50466713473057   -1.94064314343109    1.86790307548661
H         6.35792316074616   -1.34607560912752    0.43634307343072
C         4.90615159920681   -3.67285212202769   -0.07713891022816
H         5.09860304962671   -4.06759484533130    0.91695346000498
H         5.82817332043575   -3.69691564344495   -0.65117677291108
H         4.16607485968506   -4.30808485825168   -0.55201767998496
C         4.05216923197371   -1.52720207153175   -1.30248242177964
O         2.80441734820162   -0.87879197450034   -1.01485380499458
C         5.06358832605320   -0.47776442634033   -1.76115761283872
H         6.04209578674641   -0.92886222941892   -1.90069533314521
H         4.73213663655472   -0.05644877369677   -2.70680367806621
H         5.12726646513830    0.32647541782615   -1.03673454070670
C         3.79647420276842   -2.51106097027650   -2.45265327419709
H         3.04249394303365   -3.23844911313066   -2.16508650576674
H         3.41689439428770   -1.95539001955825   -3.30667994279427
H         4.71018797495645   -3.02193107855601   -2.74053084998876
H        -3.44822244349210   -3.70121028593939   -2.73203258450013
H        -5.18015550071350    1.36169874810341    1.63032570825306
C         0.23589999999964   -1.68140000000117    2.96029999999956
C        -1.04839746871589   -1.99245429364659    3.41339133574058
C         1.19390501378469   -1.52897185958420    3.95838695286613
C        -1.35031377847578   -2.01126417522136    4.79318341766953
N        -2.21103873472828   -2.27677621958118    2.73447242784462
C         0.88992060214798   -1.57689881957744    5.31648214799978
H         2.21543315724561   -1.35473497154822    3.65602280321930
C        -0.39974249459999   -1.80353453494033    5.77135465386139
O        -2.68042872863451   -2.27311934577141    4.92374771671632
C        -3.12631816515542   -2.42168475696670    3.63904212182972
H         1.67806546685252   -1.42954205139700    6.04009173062717
H        -0.65136701191311   -1.82468570058706    6.81930578432901
C        -4.52559560643071   -2.68679862119403    3.40220590041312
C        -4.97521145175297   -2.95944618802127    2.10946352611815
C        -5.44465504691990   -2.65504349461560    4.45151611617078
C        -6.31614692179323   -3.18642848337689    1.87896283840917
H        -4.25249091108252   -2.98987775818925    1.30935742813784
C        -6.78378144606336   -2.88099835531164    4.20618455428953
H        -5.09779046247639   -2.44525835268513    5.45232006134820
C        -7.24154702877740   -3.14630793381556    2.91908205717077
H        -6.65678687784914   -3.39978200792154    0.87631103468588
H        -7.48712950722431   -2.84937674454293    5.02561670753661
C        -8.69379762091556   -3.40643764010177    2.66421592596967
H        -8.97250786063141   -3.09985600801692    1.65913011544836
H        -9.31356101575429   -2.87791706102421    3.38430928000036
H        -8.89900818968803   -4.47279246218656    2.76139779625966
