93
 energy: -142.000511426548 gnorm: 0.000266282309 xtb: 6.4.1 (1a32961)
N        -0.96982568127645   -2.01094537402206   -0.34509904990913
C        -2.18952540400527   -1.48077165412916   -0.54652043536387
C        -3.06702809285171   -2.03146698929075   -1.48828941748964
C        -2.67905259230662   -3.12799157684460   -2.22777249447117
C        -1.41227313835782   -3.66239647031263   -2.01218107533478
C        -0.60484980202228   -3.06821173828128   -1.06417183493406
H         0.38494468887067   -3.45116841989759   -0.86009385512928
H        -1.06589439593046   -4.51867803689701   -2.56730208336370
H        -4.04373435194768   -1.60497061111090   -1.64543781946924
C        -2.52586879435712   -0.30803073187753    0.25507311687170
N        -1.57395895275432    0.13756393322934    1.10119241474897
C        -1.83391303308330    1.20493250419364    1.85244062225253
C        -3.03120566744641    1.89077479200313    1.81294731207487
C        -4.01930330146975    1.45091481936594    0.93749250380225
C        -3.75976918399806    0.34537618185760    0.15516889407231
H        -4.51359739033413   -0.00751410178372   -0.52844531889915
H        -3.19048562510815    2.74481674409762    2.45084416829127
H        -1.03371218648394    1.51340247333450    2.50815692922930
Ir        0.42149999999993   -0.81649999999985    0.91330000000005
H         0.87260000000006   -2.23030000000002    1.54049999999988
B         0.42001048679115    0.56341987743898   -0.64267127942034
O        -0.12430426531978    0.23784518189265   -1.86726191254941
C        -0.19991499982514    1.40566658800305   -2.69513387754451
C         0.19643246811015    1.04434605694362   -4.12395644530203
H         1.14819742577123    0.52397191688964   -4.13549492479813
H         0.26111341121029    1.94195942515390   -4.73330732817267
H        -0.55704860143670    0.38492989999489   -4.54775563874263
C        -1.66093785338913    1.87671896438363   -2.67701705545085
H        -1.80298508985737    2.73558993292123   -3.32609625742821
H        -2.29386967637818    1.06192661594583   -3.02305811315832
H        -1.96154473909890    2.13051823944306   -1.66225200769910
C         0.76749048516525    2.39928271425319   -1.97111245646606
O         0.79151535498238    1.88687504096178   -0.62998797452227
C         2.20266365513253    2.30697158864806   -2.50185917711606
H         2.54302341846484    1.27702794761448   -2.42687786466009
H         2.27017144198910    2.66091210237135   -3.52634923899132
H         2.84755553097918    2.91627608118882   -1.87351806474879
C         0.31416299459460    3.85744685361425   -1.96592363084682
H        -0.62352757503912    3.97933628767640   -1.43238401323339
H         1.06806078082497    4.46310600330117   -1.46879896357496
H         0.19857433333854    4.21293604778800   -2.98647875935669
B         1.60754046896125    0.63879764058657    1.84572792484233
O         2.91457372508496    0.96768090895112    1.63182675564530
C         3.26191563776965    2.17837806278469    2.32240044178236
C         4.58492758122454    1.97249030888293    3.06185014804725
H         4.54706129718816    1.09126171239834    3.69393362265274
H         5.37715069696598    1.82577474542527    2.33262626911155
H         4.82124751947840    2.84608573406832    3.66196860282753
C         3.44860593190120    3.25239964793217    1.24494477221991
H         3.67124019926964    4.22058905058620    1.68263612708243
H         4.27606382677936    2.95539164156142    0.60494625649211
H         2.55367613218400    3.30778758585430    0.63169576288354
C         2.02043132979949    2.43267954090375    3.25618686919323
O         1.05869213323706    1.47068068878696    2.79502039093931
C         1.39859517730204    3.82519372932017    3.12679452390377
H         1.04443113688597    3.99432101152520    2.11491479401801
H         0.54878546885254    3.89505761447356    3.80210398412745
H         2.12044478910951    4.59018643132141    3.39678512078078
C         2.28476545719634    2.15228676069687    4.73978196514379
H         2.68990269302105    1.15614243418017    4.88326053182826
H         2.97342131993964    2.88279399310543    5.15213551150251
H         1.34209873925753    2.21514691171192    5.27899705050524
B         2.27819999999956   -1.33090000000030    0.17409999999946
O         3.13826928954294   -2.21597995202499    0.78159648190093
C         4.41115428824389   -2.21028516494509    0.11840443522522
C         5.35110660023099   -1.36343459839185    0.98060279621481
H         4.91857634952861   -0.37630945127909    1.11104830167478
H         5.42548959216178   -1.82240743379806    1.96302248805605
H         6.34071626748166   -1.29561861385989    0.54068035112163
C         4.94614744554169   -3.63918596514781    0.03795144962232
H         5.12358585677584   -3.99938389783201    1.04766759164593
H         5.88230398873774   -3.65616743915936   -0.51257657889137
H         4.23354157614766   -4.30476332888479   -0.43785728673066
C         4.07549885229016   -1.54331422948054   -1.26214059332786
O         2.81975359480482   -0.88870309412663   -1.00742333627451
C         5.09348896607903   -0.50728021118489   -1.73444603090533
H         6.07804728485364   -0.95846018709455   -1.81773946806968
H         4.79624410327455   -0.13222899951350   -2.71067912748202
H         5.12908443449905    0.32865990823814   -1.04454764248148
C         3.83387739008249   -2.56097859087787   -2.38451282078882
H         3.08472888302798   -3.28648961292587   -2.07972211695716
H         3.45515554285704   -2.03436708769976   -3.25723944875720
H         4.75425286713530   -3.07166236421607   -2.65003736426113
H        -3.34495950503759   -3.55949049180482   -2.95937583228974
H        -4.96814377370274    1.96107134798328    0.87035354917580
C         0.23589999999902   -1.68140000000029    2.96029999999918
C        -1.09584655289769   -1.92786050526312    3.40503874504274
C         1.09116109468198   -1.71275577614530    4.01337072198207
C        -1.20432542657735   -2.07341851849349    4.75045500641359
H        -1.94453084776416   -1.99594121355346    2.74910064354826
Br        2.95066725114954   -1.59336453579862    3.97748476104197
S         0.32023232517427   -1.96069569853923    5.56714028518108
Cl       -2.65411792302579   -2.34124413564455    5.63308575081255
