23
 energy: -32.083473009851 gnorm: 0.000179925208 xtb: 6.4.0 (f63f532)
C         0.67431996731344    0.47964576901571    1.11753487181599
C         0.90806935752385    1.01585217363685   -0.14217194984016
C         1.79710938071560    2.22815714989477   -0.30413800102008
N         3.18133298780613    1.83400622888644   -0.42460568960357
C         3.80754322137987    1.49409166470659   -1.58031028571042
C         5.08722929648188    1.10513069770151   -1.28867807267297
C         5.23870238511883    1.20652773065445    0.10771695573374
C         4.04480408143814    1.65276031913062    0.60717102923495
C         0.35483713134599    0.39354046904602   -1.25351176774695
C        -0.42126690872205   -0.74337271581919   -1.10865044854853
C        -0.64997864272021   -1.27140262431790    0.15092780401361
C        -0.10114690935062   -0.65723398828488    1.26434002247430
H         1.10008014737226    0.95514611052881    1.98927680437160
H         1.69860860413802    2.88422329656283    0.56478045173662
H         1.51479421547854    2.78282543013946   -1.20289886209348
H         3.30555351899131    1.56012122875589   -2.52567192908341
H         5.83337583544627    0.78810414193867   -1.99188015736268
H         6.12221510986026    0.98131897168528    0.67356283658024
H         3.75668656353656    1.86286315898443    1.61858357238625
H         0.52971991670034    0.80195877693216   -2.23840594178644
H        -0.84807584744075   -1.21756592587570   -1.98021139796922
H        -1.25496134723636   -2.15865272040350    0.26487987627556
H        -0.27781206517733   -1.06418534349936    2.24913027881499
