118
 energy: -179.826187973286 gnorm: 0.000636000268 xtb: 6.4.1 (1a32961)
N        -0.96510000000242   -2.11530000000046   -0.24090000000019
C        -2.24699999999775   -1.69840000000069   -0.36220000000178
C        -3.14039999999879   -2.36819999999893   -1.21200000000290
C        -2.70219999999586   -3.47559999999749   -1.93050000000041
C        -1.37779999999621   -3.89879999999633   -1.78759999999703
C        -0.54290000000240   -3.18669999999900   -0.93509999999744
H         0.49809999999907   -3.45630000000023   -0.78940000000068
H        -0.99570000000135   -4.76029999999945   -2.32769999999925
H        -4.16499999999782   -2.02890000000017   -1.31830000000040
C        -2.62129999999752   -0.50950000000078    0.44099999999943
N        -1.62600000000019    0.07329999999995    1.16020000000013
C        -1.89680000000033    1.15239999999969    1.91690000000071
C        -3.17230000000173    1.70330000000077    1.99650000000024
C        -4.20510000000002    1.11740000000081    1.26269999999949
C        -3.92610000000200    0.00250000000014    0.47820000000095
H        -4.71960000000077   -0.46419999999981   -0.09519999999865
H        -3.34629999999978    2.57509999999925    2.62070000000026
H        -1.04450000000046    1.57420000000014    2.43689999999991
Ir        0.42149999999993   -0.81650000000016    0.91329999999992
H         0.87259999999990   -2.23030000000006    1.54050000000001
B         0.50670000000001    0.41560000000109   -0.81540000000018
O         0.19500000000009   -0.04699999999889   -2.09149999999985
C         0.00649999999972    1.10040000000292   -2.95429999999954
C         0.49020000000073    0.74740000000057   -4.35779999999901
H         1.51609999999868    0.37380000000101   -4.33700000000011
H         0.44730000000035    1.62240000000050   -5.01669999999921
H        -0.14740000000133   -0.03389999999998   -4.78430000000054
C        -1.50119999999719    1.39560000000289   -2.96669999999866
H        -1.75369999999886    2.21460000000154   -3.64849999999951
H        -2.03200000000151    0.49450000000040   -3.28930000000081
H        -1.85169999999996    1.65209999999985   -1.96219999999995
C         0.84230000000353    2.20670000000027   -2.22040000000040
O         0.75200000000001    1.78259999999975   -0.83689999999722
C         2.32929999999675    2.18620000000118   -2.59900000000073
H         2.74129999999996    1.18499999999899   -2.45749999999939
H         2.48869999999947    2.51299999999880   -3.63180000000155
H         2.87200000000038    2.86269999999999   -1.93199999999804
C         0.28440000000228    3.62289999999764   -2.33659999999802
H        -0.72650000000236    3.69040000000016   -1.92910000000029
H         0.92129999999901    4.31480000000006   -1.77610000000018
H         0.26430000000003    3.94809999999995   -3.38320000000074
B         1.56299999999990    0.60960000000048    1.84840000000042
O         2.92779999999975    0.55230000000029    2.15019999999914
C         3.36330000000188    1.88659999999985    2.50260000000217
C         4.53140000000003    1.78589999999827    3.47740000000018
H         4.27910000000026    1.16090000000232    4.33689999999827
H         5.39389999999889    1.33790000000125    2.97339999999853
H         4.82390000000002    2.77870000000132    3.83819999999915
C         3.79700000000203    2.56849999999897    1.19669999999944
H         4.20020000000025    3.57090000000020    1.37679999999932
H         4.56739999999960    1.95560000000084    0.72109999999993
H         2.95240000000116    2.63260000000007    0.50539999999943
C         2.05039999999952    2.50090000000138    3.09319999999931
O         1.03750000000128    1.81619999999970    2.31910000000052
C         1.89099999999998    4.00450000000088    2.88649999999424
H         1.87290000000007    4.25439999999941    1.82409999999881
H         0.94939999999932    4.34259999999974    3.33170000000090
H         2.71080000000055    4.55149999999965    3.36630000000022
C         1.82469999999949    2.13199999999912    4.56519999999468
H         1.92609999999992    1.05330000000013    4.71320000000029
H         2.52610000000032    2.65279999999971    5.22539999999784
H         0.80630000000369    2.41579999999997    4.84899999999987
B         2.27820000000044   -1.33089999999907    0.17410000000072
O         2.89459999999937   -2.57740000000079    0.38449999999941
C         4.26929999999921   -2.48199999999938   -0.07209999999675
C         5.10900000000036   -2.05379999999948    1.14009999999918
H         4.76349999999985   -1.08740000000019    1.51750000000009
H         4.98050000000005   -2.79470000000004    1.93590000000154
H         6.17419999999990   -1.99289999999991    0.89299999999973
C         4.71949999999994   -3.84660000000083   -0.58469999999932
H         4.75279999999969   -4.56130000000070    0.24420000000015
H         5.72330000000001   -3.78370000000001   -1.02009999999951
H         4.03500000000011   -4.23600000000004   -1.34170000000021
C         4.16439999999921   -1.36219999999909   -1.16299999999850
O         3.08519999999411   -0.55029999999827   -0.65400000000022
C         5.40720000000179   -0.48870000000038   -1.31550000000061
H         6.27320000000139   -1.09010000000047   -1.61530000000045
H         5.23300000000026    0.26929999999937   -2.08589999999944
H         5.64270000000063    0.02650000000155   -0.38239999999950
C         3.71799999999817   -1.89829999999812   -2.53109999999961
H         2.82529999999897   -2.52159999999879   -2.42740000000059
H         3.46089999999943   -1.05249999999988   -3.17550000000092
H         4.50570000000042   -2.48290000000199   -3.01790000000029
H        -3.38500000000123   -4.00129999999894   -2.59310000000099
H        -5.21399999999977    1.52080000000064    1.29960000000071
C         0.23590000000126   -1.68140000000013    2.96030000000003
C        -0.99429131006753   -2.11724923460528    3.43330141808721
C         1.31851472164198   -1.66591386793057    3.85058544494448
C        -1.19025734770249   -2.51059446958787    4.77438570863120
H        -1.81939828055421   -2.19061673676847    2.74226077071335
C         1.16538884128177   -2.05908568218779    5.15929917275818
H         2.29274596464414   -1.37385917699791    3.48779097011167
C        -0.07059203335563   -2.51025377427430    5.64980144983288
N        -2.41604948578480   -2.93933203352395    5.24539338416374
H         2.01577795613277   -2.06808379521016    5.82850682192040
C        -0.17231127921737   -2.99721346852323    6.97203723773036
B        -2.56163068358925   -3.49102191049208    6.56787808331801
C        -3.56822555887965   -2.79122800213976    4.36216340758089
C        -1.34419537448659   -3.50262148329840    7.45332078933093
H         0.72489587129830   -2.96855328124913    7.57947348081356
C        -3.92665982688317   -4.09610666789858    7.11895088414257
H        -4.47669462574735   -2.99574483628487    4.93030480332464
H        -3.51046836216667   -3.49202264010948    3.51698435570823
H        -3.61773798110837   -1.76550992835198    3.97156332034756
H        -1.35387710353299   -3.88996381999358    8.46358075515674
C        -4.39922036792360   -3.69282476686435    8.37384217054712
C        -4.61970675696278   -5.12320295690521    6.46855871028643
C        -5.51122311482408   -4.27775002980956    8.95794594516635
H        -3.88008267552739   -2.90785909536203    8.90407096915388
C        -5.73165570031143   -5.72619636875531    7.03552420396435
H        -4.27305448812190   -5.47195621940984    5.50759462244513
C        -6.17347792377062   -5.30456783217284    8.28637320446256
H        -5.85975282894707   -3.96024072712985    9.93029506154463
H        -6.24969303229326   -6.52372054193536    6.52211347773877
C        -7.37421719608745   -5.93069054677374    8.92456322626316
F        -8.49993936860002   -5.16684737779927    8.80691296622441
F        -7.70839547873481   -7.14020340818995    8.40389046868723
F        -7.22685235039798   -6.13506520481701   10.26193566984492
