110
 energy: -159.051580310060 gnorm: 0.000568599948 xtb: 6.4.1 (1a32961)
N        -0.96509999999999   -2.11529999999998   -0.24090000000000
C        -2.24700000000002   -1.69840000000004   -0.36220000000003
C        -3.14040000000000   -2.36820000000007   -1.21200000000007
C        -2.70220000000001   -3.47560000000005   -1.93050000000000
C        -1.37780000000003   -3.89880000000004   -1.78760000000001
C        -0.54289999999995   -3.18669999999996   -0.93509999999988
H         0.49810000000000   -3.45629999999999   -0.78939999999999
H        -0.99569999999998   -4.76029999999997   -2.32769999999998
H        -4.16499999999999   -2.02889999999998   -1.31830000000000
C        -2.62130000000000   -0.50949999999997    0.44099999999998
N        -1.62600000000000    0.07330000000001    1.16020000000001
C        -1.89680000000000    1.15240000000000    1.91690000000000
C        -3.17230000000000    1.70330000000002    1.99650000000000
C        -4.20509999999999    1.11740000000000    1.26270000000000
C        -3.92609999999999    0.00250000000001    0.47820000000002
H        -4.71960000000000   -0.46419999999999   -0.09520000000000
H        -3.34630000000000    2.57510000000001    2.62070000000000
H        -1.04450000000001    1.57420000000000    2.43690000000002
Ir        0.42150000000000   -0.81650000000000    0.91330000000000
H         0.87260000000000   -2.23030000000000    1.54050000000000
B         0.50670000000000    0.41559999999995   -0.81540000000002
O         0.19500000000000   -0.04699999999993   -2.09149999999998
C         0.00649999999999    1.10039999999997   -2.95429999999995
C         0.49020000000003    0.74739999999983   -4.35779999999997
H         1.51609999999999    0.37379999999999   -4.33700000000000
H         0.44730000000000    1.62240000000003   -5.01669999999999
H        -0.14739999999995   -0.03389999999996   -4.78430000000001
C        -1.50119999999998    1.39559999999980   -2.96670000000004
H        -1.75370000000000    2.21460000000013   -3.64849999999998
H        -2.03200000000002    0.49450000000006   -3.28930000000002
H        -1.85170000000001    1.65210000000002   -1.96219999999995
C         0.84229999999999    2.20669999999999   -2.22040000000002
O         0.75199999999999    1.78260000000002   -0.83689999999997
C         2.32929999999998    2.18619999999998   -2.59899999999991
H         2.74129999999999    1.18500000000004   -2.45749999999999
H         2.48870000000000    2.51300000000000   -3.63180000000002
H         2.87200000000003    2.86270000000002   -1.93200000000000
C         0.28439999999999    3.62289999999990   -2.33659999999994
H        -0.72649999999999    3.69040000000002   -1.92910000000001
H         0.92130000000001    4.31480000000001   -1.77610000000001
H         0.26430000000000    3.94810000000000   -3.38320000000001
B         1.56300000000000    0.60960000000001    1.84839999999999
O         2.92780000000000    0.55229999999999    2.15020000000001
C         3.36330000000003    1.88659999999999    2.50260000000001
C         4.53140000000000    1.78589999999996    3.47739999999993
H         4.27910000000000    1.16090000000002    4.33689999999997
H         5.39389999999997    1.33790000000002    2.97340000000001
H         4.82390000000000    2.77870000000001    3.83819999999997
C         3.79700000000004    2.56850000000001    1.19670000000004
H         4.20020000000000    3.57090000000001    1.37680000000001
H         4.56740000000000    1.95560000000000    0.72110000000000
H         2.95240000000001    2.63260000000000    0.50540000000001
C         2.05040000000000    2.50089999999996    3.09320000000009
O         1.03750000000004    1.81620000000001    2.31909999999996
C         1.89100000000002    4.00450000000005    2.88649999999997
H         1.87290000000000    4.25440000000001    1.82409999999994
H         0.94939999999997    4.34260000000000    3.33170000000001
H         2.71080000000003    4.55149999999997    3.36629999999999
C         1.82470000000000    2.13200000000009    4.56519999999999
H         1.92610000000000    1.05330000000000    4.71320000000000
H         2.52610000000002    2.65279999999997    5.22540000000003
H         0.80630000000002    2.41579999999999    4.84900000000001
B         2.27820000000000   -1.33089999999997    0.17410000000001
O         2.89460000000003   -2.57740000000001    0.38450000000000
C         4.26929999999999   -2.48200000000003   -0.07210000000001
C         5.10899999999999   -2.05380000000001    1.14010000000002
H         4.76350000000000   -1.08739999999998    1.51750000000000
H         4.98050000000000   -2.79470000000001    1.93589999999999
H         6.17420000000000   -1.99290000000000    0.89300000000000
C         4.71949999999998   -3.84660000000000   -0.58469999999994
H         4.75280000000000   -4.56129999999999    0.24420000000000
H         5.72330000000002   -3.78370000000000   -1.02009999999998
H         4.03499999999997   -4.23599999999998   -1.34170000000000
C         4.16439999999999   -1.36220000000000   -1.16300000000004
O         3.08520000000000   -0.55029999999999   -0.65399999999999
C         5.40719999999999   -0.48870000000002   -1.31550000000001
H         6.27320000000000   -1.09010000000001   -1.61530000000000
H         5.23300000000000    0.26930000000000   -2.08589999999999
H         5.64270000000000    0.02650000000000   -0.38240000000000
C         3.71800000000003   -1.89829999999999   -2.53110000000000
H         2.82530000000002   -2.52159999999999   -2.42740000000000
H         3.46090000000000   -1.05250000000002   -3.17549999999996
H         4.50569999999998   -2.48290000000000   -3.01790000000000
H        -3.38499999999998   -4.00129999999997   -2.59309999999998
H        -5.21400000000002    1.52079999999999    1.29960000000000
C         0.23590000000002   -1.68140000000000    2.96030000000002
C        -0.99837742176901   -2.17653977994335    3.37890830838939
C         1.26310238967629   -1.65840530852740    3.90655108688364
C        -1.19987444811909   -2.62775803553606    4.67559059782148
H        -1.82757660313706   -2.24280133089177    2.68409877944173
C         1.07371089977663   -2.10723373957376    5.20224273403831
H         2.24497880321585   -1.31889938630045    3.60373998440321
C        -0.15616644971961   -2.63622477076569    5.60498859152443
H        -2.18061836349599   -2.99268000209296    4.95655035412862
H         1.90337258901171   -2.10874110088094    5.89773237891766
C        -0.28179423709821   -3.26174202551992    6.91367559818555
N        -1.22605650619933   -4.23040253515894    7.16817222708665
C         0.50021129932467   -3.10759724567226    8.03714478985149
C        -1.04303013283837   -4.72563284911355    8.42892708373476
H        -1.88257675204631   -4.58567105173197    6.49330489720631
C         0.03465411713093   -4.02862331400303    9.01174123682953
H         1.30859993211161   -2.40980053085387    8.16450120939126
C        -1.72169648867320   -5.73353459233885    9.10832839189144
C         0.44228554337611   -4.35238050721269   10.31127003714819
C        -1.29664117222451   -6.03833494144869   10.39006476354588
H        -2.54558037858713   -6.26401223608069    8.64964937565364
C        -0.23044552100963   -5.35807715661588   10.98175367094473
H         1.27140637818684   -3.83237089175018   10.77259174539894
H        -1.79656102497658   -6.82256166801634   10.94519805026107
H         0.07544199027604   -5.63028340516111   11.98436125954110
