32
 energy: -43.102295483660 gnorm: 0.000111035953 xtb: 6.4.1 (1a32961)
C        -0.69974650958533   -1.54683789526776   -0.34089791610066
C        -1.72138203824651   -0.83255018181431   -0.92435741680925
C        -1.64415363716770    0.55605993016529   -1.08252154950499
C        -0.54092501575778    1.26401319374332   -0.66041189698412
C         0.49592945765153    0.54637130134078   -0.07519592642652
N         1.68265828886880    0.95797359363337    0.44100396619968
O         2.15269956582823    2.24799135570325    0.40484424800214
Si        3.21411152732061    2.82463101863764   -0.76634079243854
C         4.95582663533971    2.10218668156994   -0.48323404614342
C         2.59098693610738    2.35211150445763   -2.50254417641822
C         3.12952316046257    4.68051512195269   -0.38705761778938
C         2.38623471524763   -0.11836593380248    0.89826227096150
C         1.65671576002042   -1.26018261679082    0.71931227534962
C         2.04708226200671   -2.64895994047447    1.09826543773307
C         0.43583019641154   -0.86196592039874    0.09548568780030
H        -0.77072037467029   -2.61763190765315   -0.21995846663263
H        -2.60652713974487   -1.34772598256323   -1.26886365895799
H        -2.46952383238977    1.07912356373258   -1.54297888123376
H        -0.47499611249080    2.33557197808462   -0.77247914989643
H         4.99209121855397    1.03923267538467   -0.70856735476277
H         5.27264670398303    2.23246815048134    0.54834861954218
H         5.69103163812468    2.59167161252534   -1.11366210798491
H         2.44515715406494    1.27732612136543   -2.58419430462612
H         3.29303778346977    2.64693722273266   -3.27531866481419
H         1.63814181281205    2.82389331226699   -2.72633575686806
H         3.37448546672260    4.88142357491426    0.65085232508369
H         2.13857272643316    5.08144727934735   -0.57358853955916
H         3.83112279905761    5.22753236920949   -1.00721297220383
H         3.35676802679987    0.02023672597795    1.33209671147152
H         3.04725770546851   -2.65727165462441    1.52352920078479
H         2.02986360878248   -3.30056126929519    0.22525237051280
H         1.35097951051360   -3.05431498454546    1.83222808271286
