21
 energy: -30.244133724313 gnorm: 0.000085826269 xtb: 6.4.1 (1a32961)
C        -0.94676199730063   -1.45869308220709    0.02678073965056
C        -2.09445664420275   -0.68963890361102    0.07938003846952
C        -2.00366612438902    0.70342339085409    0.10474537229722
N        -0.86744428436717    1.37919866623027    0.08260530313703
C         0.23106269532556    0.63638480247215    0.03219888727401
N         1.50740973634462    1.09236194806369   -0.00301595856216
C         2.35459012061390    0.01469299152942   -0.05813993383924
C         1.65077721235359   -1.15490846557575   -0.05990820401476
C         0.27204667282525   -0.78721573615711    0.00191453404987
C         2.19949645468453   -2.54450852314601   -0.08300415013069
C         2.26437403286730   -3.14257524254795    1.32497304309708
H        -0.99683049925280   -2.53805153191168    0.00483745331118
H        -3.06777969605840   -1.15560421332854    0.10037962356585
H        -2.89825488130700    1.31118451146433    0.14537398035556
H         1.77751934187634    2.06123473738649    0.00575929686274
H         3.41709327986123    0.15934516809805   -0.09833386271125
H         3.20167352169325   -2.52939751995015   -0.51603657731434
H         1.56568973563082   -3.17332476431520   -0.71272574429571
H         2.91889669148031   -2.54741022516468    1.95784145975922
H         2.64721316425735   -4.15994183292504    1.28770939336741
H         1.27484146706368   -3.15887617525821    1.77608530567083
