99
 energy: -144.793617455951 gnorm: 0.000166973887 xtb: 6.4.1 (1a32961)
N        -0.90995505943834   -2.02763748562456   -0.37846895267050
C        -2.16651482925856   -1.56808219454736   -0.53180690174532
C        -3.03294553024401   -2.14440511749978   -1.46999600823083
C        -2.59865835937936   -3.19002233783359   -2.25435370261770
C        -1.29517479401608   -3.65201389822588   -2.08666380161285
C        -0.50154351752129   -3.03864517176873   -1.14042126688820
H         0.51427132783842   -3.36656530809826   -0.97042174322297
H        -0.91312402081150   -4.46866902096179   -2.67735962759676
H        -4.03842707593014   -1.77556355346657   -1.58858935022723
C        -2.55295590672064   -0.45073879479967    0.32039780225952
N        -1.60762079913152    0.02149745477440    1.16101504467098
C        -1.91790445099065    1.03433433648357    1.96642717901718
C        -3.15819216081477    1.63868033992941    1.98843486470034
C        -4.14024614025771    1.17254153907050    1.11794320072141
C        -3.82976692852688    0.12374099250081    0.27992689992489
H        -4.57724402356259   -0.24916705539357   -0.40045757415627
H        -3.35692578749612    2.44998263378390    2.66984116704191
H        -1.12004636796200    1.36880499181765    2.61131727783593
Ir        0.42150000000015   -0.81649999999991    0.91330000000017
H         0.87260000000013   -2.23030000000002    1.54049999999996
B         0.38585632036326    0.62064139740039   -0.60035422019281
O        -0.29155304152747    0.35195852829160   -1.77810150277175
C        -0.39824633983608    1.54325092867976   -2.56409153907246
C        -0.20430920197549    1.20747992521964   -4.04057256928582
H         0.70272387869064    0.63045215419898   -4.18676392136129
H        -0.15633408289992    2.12058766510179   -4.62827600546960
H        -1.04585254687531    0.61152646496243   -4.38586141259156
C        -1.81541281421816    2.09536175919474   -2.35114019309198
H        -1.98878461591976    2.97874297025282   -2.95855318444380
H        -2.53365237506426    1.32634251689055   -2.62908592335932
H        -1.96886474201720    2.33509722460344   -1.30068981643822
C         0.70567058947252    2.45902394546465   -1.94237499019490
O         0.84889301566245    1.91692092452912   -0.62275453328296
C         2.06377309668475    2.29309941056056   -2.63541408524506
H         2.34279113179055    1.24218680982551   -2.62296942259224
H         2.04093573813776    2.67242701213352   -3.65305417469610
H         2.81241495867071    2.84120965865278   -2.06820667225633
C         0.34770888716910    3.94177374245749   -1.86499143726830
H        -0.50766602484092    4.10728616595792   -1.21738305323869
H         1.19284437494774    4.49125979819913   -1.45737706315282
H         0.12888960205921    4.32360596821293   -2.85905634138651
B         1.55967833002886    0.65238051393715    1.86479812253844
O         2.92729712403678    0.79899190486019    1.87339164074712
C         3.28268761194831    2.07527424345790    2.42408135059517
C         4.53777089454583    1.93925027669818    3.28477118988792
H         4.42215513753594    1.15403312315177    4.02439708259860
H         5.38080130076643    1.68314078677581    2.64812619855496
H         4.75070540902115    2.88086320129957    3.78369815601131
C         3.57335199440150    2.99783322504000    1.23425363939046
H         3.83629420916694    3.99990685517365    1.55990405349959
H         4.40211896739392    2.58090104891480    0.66645449013343
H         2.70170251024659    3.02014278156293    0.58529648172381
C         1.98805225798917    2.48455358436043    3.20535215213914
O         0.98088191645070    1.66604504696115    2.59676971462146
C         1.59346629857105    3.95431772796280    3.07101592907319
H         1.36296377218977    4.19516919524307    2.03869516957358
H         0.70618079313508    4.14059167229321    3.67119888650676
H         2.39710289405709    4.59321013179568    3.42726559594827
C         2.03917276087451    2.10890265060982    4.69196753422931
H         2.27138121175752    1.05325750341801    4.79994010980116
H         2.77232047136038    2.70888873999073    5.22229893097445
H         1.05845845644724    2.28076074488636    5.12944174254229
B         2.27819999999913   -1.33090000000078    0.17410000000095
O         3.11773197832629   -2.28050897457527    0.71774544030617
C         4.40401022969364   -2.23246336879545    0.08854845571040
C         5.33652754726638   -1.50264692106314    1.06156827600092
H         4.90199989799031   -0.53803534299212    1.30754012623115
H         5.40043791665912   -2.08495855889509    1.97735936707558
H         6.33290422867093   -1.38312006862114    0.64765987518088
C         4.91575123789131   -3.65667647420468   -0.12951172375158
H         5.04838749249063   -4.13160238494510    0.83898930018666
H         5.87110948781112   -3.63630432881212   -0.64620969069192
H         4.20778685909417   -4.24914894699641   -0.69928934229389
C         4.12147203013864   -1.41853372302646   -1.22483419077423
O         2.85556672559904   -0.79823009525463   -0.95481824572696
C         5.14889561686882   -0.33107770096625   -1.53635837397631
H         6.13805702401437   -0.76520269307885   -1.65221177092431
H         4.87122967571735    0.16459417199571   -2.46318565314407
H         5.16094210687603    0.41185868866603   -0.74658740111770
C         3.93931590215566   -2.30437337997138   -2.46479447694710
H         3.17302285656107   -3.05293062763409   -2.28406180027679
H         3.60884690068082   -1.68010706990253   -3.29145565400110
H         4.87132847203407   -2.78908553308982   -2.73921815167246
H        -3.25559029244410   -3.63966540516494   -2.98340785164894
H        -5.12270496882357    1.61973387539329    1.09883357752366
C         0.23590000000092   -1.68139999999711    2.96029999999782
C        -1.04286689058554   -2.06083466559796    3.33286046790664
C         1.22531378044346   -1.52411073172232    3.94618984837369
C        -1.34819613933314   -2.17632812083466    4.68958293343836
H        -1.81097201224905   -2.27302784232355    2.60314756439594
C         0.95447826280638   -1.64417134936595    5.29492811910509
H         2.23256700966008   -1.30938682552198    3.62461373965915
C        -0.34859876902529   -1.95622598081050    5.65454254973862
C        -2.52400384656074   -2.50404124840453    5.43840082666068
H         1.71850429345790   -1.51590686028760    6.04611276525888
O        -0.85521429290202   -2.12945500115212    6.90498846827801
C        -2.16273987654465   -2.45727484736796    6.74097991695871
H        -3.49371327483076   -2.73720900545398    5.04857012707999
H        -2.72200526352936   -2.63055274894487    7.64003661035885
