19
 energy: -33.871877104067 gnorm: 0.000492588861 xtb: 6.4.1 (1a32961)
C         2.35845191396068   -0.04973568952877   -0.01855906455686
C         3.84115077440772   -0.14114188486608   -0.01694311163086
O         4.45277798493483   -1.17892647982981    0.11881060424949
O         4.43105039336514    1.04124089964760   -0.19043336754757
C         5.85752669532509    1.05973867639365   -0.20791767061019
C         1.69921306163388    1.17482997494575   -0.11828533041848
C         0.31943580887369    1.21740911625777   -0.11616204180021
C        -0.41037860846717    0.03019081327434   -0.01454918990870
C        -1.82417070177398    0.07270711347848   -0.01447702835389
N        -2.97094334648129    0.10812973344637   -0.01573056585918
C         0.24653313827507   -1.19867205763947    0.08693822050985
C         1.62565751502033   -1.23202161200040    0.08500857520130
H         6.13837362825019    2.02455559539307   -0.62193745709873
H         6.23767887344447    0.24264220909634   -0.82368497363306
H         6.24288103130340    0.94882117451338    0.80736818281869
H         2.27289628117061    2.08410691453496   -0.19621017986031
H        -0.20144083914410    2.15946424750362   -0.19266329348318
H        -0.32673333583965   -2.10942680436633    0.16663145900049
H         2.15895973174100   -2.16709194025451    0.16264623298155
