96
 energy: -144.718011397789 gnorm: 0.000268913436 xtb: 6.4.1 (1a32961)
N        -0.94101052971330   -1.99647469684800   -0.36675210758906
C        -2.16522167742347   -1.47412660271848   -0.55322565303887
C        -3.06817924913884   -2.06250219995712   -1.44724647388832
C        -2.70108704731715   -3.18747826107443   -2.15318187061648
C        -1.42757108022807   -3.71229463911904   -1.95408319587542
C        -0.59503036832010   -3.08017161390827   -1.05385739780221
H         0.40109513762196   -3.45477389747429   -0.86343542292662
H        -1.09652873878471   -4.59134592059927   -2.48272178845570
H        -4.05202956405419   -1.64686580672343   -1.58788191824132
C        -2.48562903807854   -0.27915848912308    0.21913973687295
N        -1.54072730990464    0.16028340021583    1.07614058174230
C        -1.79962430447281    1.23728537747301    1.81534901699424
C        -2.98218626999526    1.94462096261481    1.74401385855534
C        -3.95750252116669    1.51885645058545    0.84743787678980
C        -3.70185710286409    0.39991591707214    0.08364476888857
H        -4.44510249292995    0.05657054508099   -0.61618798301391
H        -3.14002870751813    2.80489858936455    2.37397856529814
H        -1.01049155091656    1.53493240155001    2.48936652674001
Ir        0.42150000000011   -0.81649999999993    0.91329999999971
H         0.87259999999998   -2.23029999999995    1.54050000000050
B         0.41737364357035    0.58372269491085   -0.62771304804515
O        -0.07933420047238    0.24708140471946   -1.86987827125699
C        -0.16496566091497    1.41364626563846   -2.69761329308631
C         0.28648265883792    1.06866377435687   -4.11445273535951
H         1.25507516358635    0.58036387971954   -4.09801135516479
H         0.33970575198775    1.96923727584120   -4.72073415088820
H        -0.43149779584174    0.38522517933479   -4.56127804641790
C        -1.63923050607140    1.84113118408634   -2.72626822492855
H        -1.78615728824691    2.69378085964939   -3.38259212406834
H        -2.23623103024477    1.00665191570919   -3.08873219891019
H        -1.97920422018983    2.08796718309009   -1.72240967567408
C         0.74854373819402    2.43405353661757   -1.94210510191822
O         0.74589468256714    1.92015717897764   -0.60194112118783
C         2.20149172283833    2.38631754606659   -2.42924912330634
H         2.57116652020374    1.36757207356707   -2.34055538338541
H         2.28842547779303    2.73971656899772   -3.45249674699564
H         2.80772972318485    3.01701119177166   -1.78386278695777
C         0.25222904422204    3.87814633866268   -1.94992730755935
H        -0.70721821114328    3.96989717464335   -1.45027174427528
H         0.96952664577855    4.50392550219473   -1.42429984241757
H         0.16308152890456    4.23321031606168   -2.97333886428685
B         1.60590801616473    0.65142918309536    1.83494156670957
O         2.90339521884812    1.01383778283648    1.58530078010783
C         3.25051764343695    2.20843645989967    2.30108598570847
C         4.60508325676428    2.00819354866281    2.98365634919248
H         4.60255328877169    1.11519145473592    3.60036926087400
H         5.37105137244322    1.88919079495134    2.22124320353859
H         4.85103300028250    2.87314857048009    3.59271431903397
C         3.37391862219015    3.32312422209375    1.25626440269374
H         3.59474142831766    4.28002165710483    1.71923889939146
H         4.17992521084884    3.06613509685321    0.57250786847327
H         2.45319799532026    3.38047458379153    0.68264650927320
C         2.04229258146937    2.40494825901728    3.28964624188860
O         1.07322416280386    1.46016494003643    2.81357032003518
C         1.41159036827398    3.79874188639482    3.25824241770517
H         1.02752510608795    4.02567989701361    2.26902185663509
H         0.58159291230243    3.82305853054037    3.96032942289393
H         2.13849944054671    4.55059634981607    3.55168343024844
C         2.36009942629706    2.04433784005334    4.74592713391222
H         2.75280383999407    1.03492967189778    4.81472315494398
H         3.07177576556225    2.74551139857033    5.17049180414804
H         1.43770550326911    2.08433697584953    5.32066766119927
B         2.27820000000029   -1.33089999999980    0.17409999999977
O         3.12823915691063   -2.27407541643638    0.71443427663628
C         4.39562255133565   -2.24277030301761    0.04457497963765
C         5.34491802114354   -1.44067241810302    0.94124061099358
H         4.92319756906897   -0.45357375705961    1.11067694878109
H         5.41839909428332   -1.94250149722910    1.90341522418631
H         6.33555331744473   -1.36335875346401    0.50437345868407
C         4.92489715678426   -3.66728646600027   -0.11280114166437
H         5.12318000417746   -4.07763541967634    0.87382713577842
H         5.84853130282076   -3.66049031426396   -0.68464696573471
H         4.19882750609350   -4.30676631493826   -0.60372373947703
C         4.05463566358063   -1.50512986768161   -1.29590128335672
O         2.82587937323348   -0.82933454567772   -0.98364765215738
C         5.09572422476499   -0.48161672492503   -1.74472179835358
H         6.06636893382203   -0.95671047057422   -1.85662889452443
H         4.79761150464797   -0.06354806713357   -2.70306638846608
H         5.16301939745402    0.32840969543126   -1.02656347970569
C         3.75936070036063   -2.46793660301893   -2.45384829412427
H         3.00110320358631   -3.18811994359588   -2.15856324462257
H         3.36793297681495   -1.89572289209869   -3.29150433634944
H         4.65952860711186   -2.98721127614938   -2.76826699659400
H        -3.38846477480124   -3.64993113416909   -2.84511433637257
H        -4.89316894391446    2.04852401286083    0.75139184112867
C         0.23589999999694   -1.68139999999883    2.96029999999737
C        -1.05043403136859   -2.03588545770445    3.36114474725111
C         1.15929141718409   -1.62443040491767    4.00688861754398
C        -1.44667932748704   -2.20043296891538    4.67466924740135
F        -2.00721611563472   -2.25652669933849    2.40823432427168
Cl        2.82446621023499   -1.38085855918463    3.63105816397038
C         0.81057370929807   -1.78232309458767    5.33933969096432
C        -0.50380425543133   -2.05326484606693    5.67710895775619
H        -2.47395773316197   -2.44935798560119    4.89087811360822
H         1.57277371300073   -1.70615249757358    6.09696441925414
H        -0.78696227589172   -2.17245332992889    6.71009131718563
