95
 energy: -141.500516092317 gnorm: 0.000535098043 xtb: 6.4.1 (1a32961)
N        -0.93703416768968   -2.02316619400194   -0.38487549327285
C        -2.18888140173275   -1.55362638282848   -0.51929159362318
C        -3.05252223130308   -2.07613392066868   -1.48836955369513
C        -2.62081489104171   -3.09346346171354   -2.31346207095351
C        -1.32594644975733   -3.57556311529510   -2.15577022597515
C        -0.52964164442423   -3.00407027224882   -1.18352585324489
H         0.48446952725048   -3.34229088592515   -1.02504186677136
H        -0.94727988804386   -4.37158920013794   -2.77547670900071
H        -4.04948507852184   -1.68568477067162   -1.60536739322870
C        -2.58034773974271   -0.47422250562317    0.38657180265038
N        -1.61709125626522    0.02286277383200    1.18720126730759
C        -1.92444238326987    1.01115302372389    2.02229901345885
C        -3.19055055860984    1.55380088611961    2.12641182267501
C        -4.19792297022064    1.04563246325852    1.31404309838097
C        -3.88512083273320    0.02828557679160    0.43613819089159
H        -4.65480907014879   -0.37994861476617   -0.19674318314207
H        -3.38528076977735    2.34632284402272    2.83020385717438
H        -1.10667583898194    1.38053386905326    2.62218831393324
Ir        0.42150000000003   -0.81649999999995    0.91329999999998
H         0.87259999999983   -2.23029999999991    1.54049999999994
B         0.41321288812276    0.59392626884427   -0.61796734086161
O        -0.19242876531283    0.29344665412128   -1.82131208870447
C        -0.26349039429627    1.46870028237203   -2.63923779798029
C         0.04626222233871    1.10363790974461   -4.08841706145762
H         0.97747281997023    0.55102430458006   -4.15340952121250
H         0.11066771310618    2.00306574033906   -4.69495445371426
H        -0.75128728774681    0.47476883182083   -4.47641113459366
C        -1.70362360690319    1.99113002815065   -2.54360221382277
H        -1.84620328508169    2.86531669071510   -3.17147193190569
H        -2.38070007490430    1.20475931545932   -2.87101189302254
H        -1.94430583148228    2.23632154650478   -1.51116134055333
C         0.77584367188607    2.42041698447619   -1.95971696444761
O         0.85438933508834    1.89357032581112   -0.62563671119608
C         2.17809204705129    2.28598542177074   -2.56478005532248
H         2.48881124995631    1.24531684595968   -2.51334427067366
H         2.20506089266524    2.64513063663361   -3.58926465403146
H         2.87295629748705    2.86999384606442   -1.96611656260111
C         0.37352142028217    3.89283811645445   -1.91729791143060
H        -0.52840926414452    4.03974674122785   -1.33139001244540
H         1.17360267653956    4.46717118534172   -1.45673269740360
H         0.21427122334234    4.26303607872786   -2.92671269389291
B         1.57473784745055    0.63233073817666    1.87909508698652
O         2.93793127641254    0.76453426777913    1.89683739320849
C         3.30118948421721    2.03435092598114    2.46395284685832
C         4.54060604103880    1.87321477945588    3.34166801304235
H         4.39858435247549    1.09341774036091    4.08264903725396
H         5.38620401806460    1.59715274715809    2.71703425746692
H         4.76696168207018    2.81108850470666    3.84127914060829
C         3.62169385652315    2.95639414633852    1.28195223376605
H         3.88917306224946    3.95429536731392    1.61548307499402
H         4.45633419396784    2.53240066330263    0.72840242351712
H         2.76192361278571    2.99059605227188    0.61776148997288
C         2.00006074136962    2.45655212792564    3.22985486573692
O         0.99263325564436    1.63335716486776    2.62012180954168
C         1.60941328746666    3.92456658768349    3.06934066214240
H         1.39046423172100    4.15029840166277    2.03108888186957
H         0.71646595309716    4.12170241281351    3.65752870406591
H         2.41040972901128    4.56628869123266    3.42547192376199
C         2.03254600166743    2.10367100748728    4.72209126229217
H         2.25040790168547    1.04776129362780    4.85947727113876
H         2.76880041366391    2.70283548868036    5.24844533197788
H         1.05169178700282    2.29840954658061    5.15037303107705
B         2.27820000000006   -1.33089999999949    0.17410000000029
O         3.09272322047502   -2.28914003572540    0.73620588412005
C         4.38476641810754   -2.27394192027922    0.11122676328698
C         5.32447959063404   -1.54135282304408    1.07419687941135
H         4.90714717588526   -0.56411367641962    1.29922522199832
H         5.37515592721551   -2.10557366179652    2.00207431289121
H         6.32435588951379   -1.44811321984175    0.66247036782451
C         4.87266858426358   -3.70968332332425   -0.07985267320184
H         5.00188802724724   -4.16762166077676    0.89720202375112
H         5.82652857969812   -3.71394083827295   -0.59935226202866
H         4.15432456327430   -4.30255249598253   -0.63589867847337
C         4.11896778186374   -1.47873545020172   -1.21615582070830
O         2.86966933794589   -0.81733002259495   -0.95147237950205
C         5.17482564545238   -0.42852399822078   -1.55483360526312
H         6.15101147772645   -0.89389071165676   -1.65725201416531
H         4.91317764802227    0.04910545697014   -2.49544740283234
H         5.20888711526619    0.33451618258010   -0.78521850562049
C         3.90063586467862   -2.38409479501280   -2.43515602742135
H         3.12233471630436   -3.11348453782341   -2.22929373010208
H         3.57152254127962   -1.76941149085019   -3.26936411545630
H         4.81872841901809   -2.89325257281910   -2.71178352890437
H        -3.27607776180404   -3.50346969132532   -3.06650182945394
H        -5.20284781861544    1.43516021864376    1.36755825513720
C         0.23589999999879   -1.68139999999901    2.96029999999993
C        -1.03618889836545   -2.06096688741069    3.40534352665974
C         1.17818096559321   -1.53762241673638    3.98911509584814
N        -1.36987884387056   -2.11835665243854    4.68220340209643
H        -1.83040706356709   -2.33380098604077    2.72049798924197
N         0.86704383660516   -1.59402730598322    5.26912812839487
H         2.22390218906280   -1.37460229425123    3.76337119763255
C        -0.41243529361934   -1.83874922697920    5.56586214370693
C        -0.77735648067076   -1.83399234596822    6.93835896569538
N        -1.07633890058041   -1.82179444137235    8.04627500452385
