103
 energy: -154.419492235147 gnorm: 0.000319950552 xtb: 6.4.1 (1a32961)
N        -0.81326438768716   -1.93901120573361   -0.52391503548814
C        -2.06596684867537   -1.48456255662417   -0.69158179641377
C        -2.94126784418001   -2.10169361612686   -1.59360037609048
C        -2.51561159727981   -3.18498122530120   -2.33041152548619
C        -1.21118969023911   -3.63554898118556   -2.15583825763613
C        -0.41050454755294   -2.97920113236691   -1.24384307742292
H         0.60735597775407   -3.29838886084492   -1.07113837154560
H        -0.83456197595173   -4.48203971005720   -2.70658474539241
H        -3.95323376610079   -1.74847065683222   -1.70693581856493
C        -2.46124889329481   -0.33850537937435    0.12015929251118
N        -1.60326066803005    0.04583164729218    1.08765073446916
C        -1.94976045643602    1.05428946403625    1.88565651515145
C        -3.13465857185827    1.75039592260202    1.76465648935850
C        -4.00970356634135    1.39664931644961    0.74195061224700
C        -3.66652468919938    0.34443376824584   -0.08059486221613
H        -4.32617781199705    0.06184476475830   -0.88464604307804
H        -3.36716348876492    2.55195896844621    2.44652914447889
H        -1.22531337014212    1.31152325512904    2.64361060396600
Ir        0.42149999999994   -0.81650000000004    0.91329999999974
H         0.87260000000007   -2.23030000000019    1.54050000000004
B         0.52218576178379    0.68637952627687   -0.53827759098363
O        -0.20580698842197    0.56329737922582   -1.70521040309872
C        -0.13809922908857    1.78198029515343   -2.45727143225921
C         0.00125588057554    1.46070460588260   -3.94305181985483
H         0.82261986192423    0.77262593346468   -4.11252387391054
H         0.16561134586199    2.37410454714208   -4.50863727327807
H        -0.91412466067526    0.99026066097595   -4.29367081009557
C        -1.45911871863134    2.52724656598495   -2.22057110816914
H        -1.49899711424096    3.44811308138792   -2.79458285137528
H        -2.28122251573873    1.88286034216967   -2.52555498547228
H        -1.57879384289231    2.74691673557282   -1.16154866878221
C         1.09159657084480    2.50861322718017   -1.81883296183050
O         1.17623202204267    1.89371999455337   -0.52379453845387
C         2.40522871053183    2.18857451987114   -2.54150524256529
H         2.54017435277465    1.11040422757024   -2.57337799554247
H         2.41971105900734    2.60705474040064   -3.54341516226049
H         3.22856463690339    2.60975803394846   -1.96938183224414
C         0.94448696176151    4.02139284574270   -1.66936163535679
H         0.12501172902852    4.27408698095535   -1.00369264417991
H         1.86116058422596    4.42811841041698   -1.24900590460265
H         0.77563671122417    4.47545698034417   -2.64220497545677
B         1.51728873787207    0.62904234872429    1.95371704654166
O         2.87982765654222    0.71759971106916    2.05163534913543
C         3.26683519372096    1.96135585838186    2.65262476341922
C         4.37780822079042    1.70618986248763    3.67128130543590
H         4.07483665677027    0.97335425312315    4.41217084960001
H         5.24843801709620    1.31575302999545    3.15099369916131
H         4.65169540851729    2.63224110746533    4.16888364877708
C         3.81014214318848    2.83942220940418    1.51880880045530
H         4.08060235975277    3.82886377728776    1.87384054283456
H         4.69466802130129    2.36094953405692    1.10469568168866
H         3.06262132032844    2.90442463053318    0.73299554403789
C         1.92016206037191    2.49505049841898    3.26132857062095
O         0.92782608277479    1.66864243423482    2.63436489187521
C         1.60970003192515    3.95722678438651    2.94124016794039
H         1.51707374413789    4.09811151728125    1.86958373087071
H         0.66384431343208    4.22758190312603    3.40418976175143
H         2.38903872880264    4.60401446416335    3.33376904000379
C         1.80192080799454    2.27868990812563    4.77491421696911
H         1.95849545812543    1.23274084424882    5.02413951057174
H         2.51864264113928    2.89082635311361    5.31314876013911
H         0.79753627364114    2.55230054692364    5.09007578757797
B         2.27819999999888   -1.33090000000045    0.17409999999886
O         3.16925501181351   -2.14042688476045    0.84254109648532
C         4.41583379494800   -2.20196990930188    0.13671657532689
C         5.37982716566008   -1.26030591154624    0.86558849940576
H         4.93437533821020   -0.27119017515629    0.91876198452147
H         5.50856473707239   -1.62070018139504    1.88317388868871
H         6.34818966823575   -1.22272947330358    0.37654482503470
C         4.96117716397038   -3.62868240280044    0.19215531349002
H         5.18762811552044   -3.87598288494008    1.22585455918740
H         5.87124042599021   -3.70427636294796   -0.39608230353402
H         4.23256632955949   -4.34567132627387   -0.17125711921156
C         4.02441784830509   -1.69447051963329   -1.29548777208003
O         2.77891270868613   -1.01067770302952   -1.06512950155044
C         5.02299050912031   -0.72662147417599   -1.92645697966924
H         5.99944781374710   -1.19601034809006   -2.00657809864579
H         4.68033673573894   -0.45912435432087   -2.92276051806287
H         5.09895387771292    0.18095929389954   -1.33775673511178
C         3.73819551140995   -2.83389289545865   -2.28238638150585
H         3.01206258100945   -3.52394221010039   -1.86146998025770
H         3.31380768645393   -2.41037959534389   -3.18937234787813
H         4.64901221160311   -3.36883669903410   -2.53297329967144
H        -3.18317591428475   -3.67425859000539   -3.02331537217700
H        -4.93566427506640    1.93087122465348    0.59338769578385
C         0.23589999999829   -1.68139999999923    2.96030000000138
C        -1.04763475125001   -1.90567319675954    3.48414318799719
C         1.28985629099846   -1.55160545639353    3.86739847725717
C        -2.19465909414828   -2.27559404480311    2.63315781963266
C        -1.27129630279356   -1.85151102143354    4.86771852967356
C         1.06479993278033   -1.52302506204324    5.23982356670555
H         2.29682407305605   -1.46286503381299    3.48918234555774
O        -2.14605676229441   -2.97956218674516    1.64576881850502
O        -3.35969194585532   -1.81328816758884    3.12314013835264
C        -0.23676787609761   -1.64728790940836    5.74809171272307
H        -2.27514262926978   -1.99025174842985    5.23905838176068
C         2.15005507996304   -1.35936731660443    6.12664927112493
C        -4.54437822310109   -2.20657049824023    2.43950811941806
H        -0.40983587056724   -1.60471926727334    6.81232038825862
N         3.02629354678015   -1.21730227975025    6.85584198347331
H        -4.56239827110185   -1.77212890160824    1.43794202246361
H        -5.36988454901085   -1.82807185628107    3.03616502023211
H        -4.58884343131186   -3.29424712396004    2.35509244601136
