101
 energy: -147.730186585094 gnorm: 0.001527583956 xtb: 6.4.1 (1a32961)
N        -0.96509999999999   -2.11529999999998   -0.24089999999998
C        -2.24700000000000   -1.69839999999999   -0.36220000000002
C        -3.14040000000001   -2.36820000000001   -1.21200000000002
C        -2.70219999999999   -3.47559999999999   -1.93050000000002
C        -1.37779999999995   -3.89880000000005   -1.78759999999995
C        -0.54290000000002   -3.18670000000007   -0.93510000000001
H         0.49810000000000   -3.45630000000000   -0.78940000000000
H        -0.99570000000000   -4.76029999999993   -2.32770000000000
H        -4.16500000000000   -2.02890000000000   -1.31830000000000
C        -2.62130000000000   -0.50950000000003    0.44100000000001
N        -1.62600000000000    0.07330000000002    1.16020000000000
C        -1.89680000000002    1.15239999999997    1.91690000000000
C        -3.17230000000001    1.70330000000001    1.99650000000001
C        -4.20510000000001    1.11739999999999    1.26270000000000
C        -3.92609999999999    0.00249999999999    0.47819999999999
H        -4.71960000000000   -0.46420000000000   -0.09520000000000
H        -3.34630000000000    2.57509999999999    2.62070000000000
H        -1.04450000000000    1.57420000000000    2.43690000000000
Ir        0.42150000000000   -0.81650000000000    0.91330000000000
H         0.87260000000000   -2.23030000000000    1.54050000000000
B         0.50670000000000    0.41560000000000   -0.81539999999999
O         0.19500000000000   -0.04700000000000   -2.09150000000000
C         0.00650000000000    1.10040000000002   -2.95429999999994
C         0.49020000000006    0.74739999999996   -4.35780000000002
H         1.51610000000006    0.37380000000000   -4.33700000000000
H         0.44730000000001    1.62240000000000   -5.01670000000000
H        -0.14739999999997   -0.03389999999996   -4.78430000000001
C        -1.50119999999997    1.39560000000000   -2.96669999999999
H        -1.75370000000000    2.21459999999998   -3.64850000000000
H        -2.03200000000000    0.49450000000000   -3.28930000000000
H        -1.85170000000000    1.65210000000000   -1.96220000000000
C         0.84230000000000    2.20670000000001   -2.22040000000000
O         0.75200000000000    1.78260000000000   -0.83690000000000
C         2.32930000000000    2.18620000000002   -2.59900000000003
H         2.74130000000000    1.18500000000000   -2.45750000000000
H         2.48870000000000    2.51300000000000   -3.63180000000001
H         2.87200000000000    2.86270000000000   -1.93200000000000
C         0.28440000000000    3.62289999999998   -2.33660000000000
H        -0.72650000000000    3.69040000000000   -1.92910000000001
H         0.92129999999999    4.31480000000000   -1.77610000000000
H         0.26430000000000    3.94809999999999   -3.38320000000001
B         1.56300000000000    0.60960000000000    1.84840000000000
O         2.92780000000000    0.55230000000000    2.15020000000000
C         3.36330000000000    1.88659999999999    2.50260000000000
C         4.53140000000002    1.78589999999999    3.47740000000000
H         4.27909999999999    1.16090000000000    4.33690000000000
H         5.39389999999998    1.33790000000000    2.97340000000000
H         4.82390000000001    2.77869999999999    3.83819999999999
C         3.79700000000000    2.56850000000002    1.19670000000000
H         4.20020000000000    3.57089999999999    1.37679999999999
H         4.56740000000001    1.95560000000002    0.72110000000000
H         2.95240000000000    2.63260000000000    0.50540000000000
C         2.05040000000001    2.50090000000002    3.09320000000002
O         1.03750000000000    1.81620000000000    2.31910000000000
C         1.89100000000004    4.00449999999999    2.88650000000001
H         1.87290000000000    4.25440000000001    1.82410000000001
H         0.94940000000002    4.34260000000000    3.33170000000001
H         2.71080000000002    4.55150000000000    3.36629999999999
C         1.82469999999999    2.13199999999997    4.56520000000000
H         1.92610000000000    1.05330000000001    4.71320000000000
H         2.52609999999999    2.65279999999998    5.22540000000000
H         0.80630000000000    2.41580000000002    4.84900000000000
B         2.27820000000000   -1.33090000000000    0.17410000000000
O         2.89459999999999   -2.57740000000000    0.38449999999999
C         4.26930000000000   -2.48200000000000   -0.07210000000003
C         5.10900000000001   -2.05379999999998    1.14010000000004
H         4.76350000000000   -1.08740000000002    1.51750000000000
H         4.98050000000001   -2.79470000000000    1.93589999999999
H         6.17420000000000   -1.99289999999999    0.89300000000000
C         4.71950000000000   -3.84660000000001   -0.58470000000001
H         4.75280000000000   -4.56129999999999    0.24420000000000
H         5.72330000000000   -3.78370000000000   -1.02009999999999
H         4.03499999999999   -4.23600000000000   -1.34169999999999
C         4.16439999999998   -1.36220000000000   -1.16300000000000
O         3.08520000000000   -0.55030000000000   -0.65400000000000
C         5.40720000000000   -0.48870000000000   -1.31550000000000
H         6.27320000000000   -1.09010000000000   -1.61530000000000
H         5.23300000000000    0.26930000000000   -2.08590000000000
H         5.64270000000000    0.02650000000000   -0.38240000000000
C         3.71800000000000   -1.89830000000001   -2.53110000000000
H         2.82530000000000   -2.52159999999999   -2.42740000000000
H         3.46089999999999   -1.05250000000002   -3.17550000000000
H         4.50570000000001   -2.48290000000001   -3.01790000000000
H        -3.38499999999999   -4.00130000000001   -2.59309999999999
H        -5.21400000000000    1.52080000000000    1.29960000000000
C         0.23590000000000   -1.68140000000000    2.96030000000001
C        -0.94405538753525   -2.11577345042572    3.53691127485077
C         1.20012912636833   -1.82260893335285    3.98998718310200
O        -0.75941627436565   -2.47176636278809    4.83145543534590
C        -2.33922230095706   -2.27060792245553    3.05640390142264
C         0.56287026060600   -2.30578154200679    5.11563373830943
H         2.25121742079056   -1.61652605663037    3.89966082761087
H        -2.85975303939823   -2.98053459461994    3.70018705609629
H        -2.35552993884390   -2.63227879614363    2.02991718432942
H        -2.87401375579061   -1.32009766927375    3.10177157820629
C         1.04832466060600   -2.76049234508644    6.40059487157928
O         2.21398692076306   -2.62449172093514    6.75197984534858
C         0.01339374637704   -3.45386450810246    7.25439101839184
H        -0.82694507179358   -2.78429983677584    7.42993935953673
H         0.45523336524332   -3.76093108943518    8.20133802592835
H        -0.36327559630876   -4.32816266798650    6.72259576052526
