107
 energy: -152.623448573408 gnorm: 0.003855361486 xtb: 6.4.1 (1a32961)
N        -0.96510000000000   -2.11530000000000   -0.24090000000000
C        -2.24700000000000   -1.69840000000002   -0.36219999999999
C        -3.14040000000002   -2.36820000000000   -1.21199999999999
C        -2.70220000000001   -3.47559999999998   -1.93049999999999
C        -1.37780000000000   -3.89880000000000   -1.78760000000000
C        -0.54290000000001   -3.18670000000000   -0.93510000000001
H         0.49810000000000   -3.45630000000000   -0.78940000000000
H        -0.99570000000000   -4.76029999999999   -2.32770000000000
H        -4.16500000000000   -2.02890000000000   -1.31830000000000
C        -2.62130000000000   -0.50950000000000    0.44100000000001
N        -1.62599999999999    0.07330000000000    1.16020000000000
C        -1.89680000000000    1.15240000000001    1.91690000000002
C        -3.17230000000001    1.70329999999999    1.99650000000001
C        -4.20509999999998    1.11740000000002    1.26269999999999
C        -3.92610000000000    0.00250000000001    0.47820000000001
H        -4.71960000000000   -0.46420000000000   -0.09520000000000
H        -3.34630000000000    2.57510000000000    2.62070000000000
H        -1.04450000000000    1.57420000000000    2.43690000000000
Ir        0.42150000000000   -0.81650000000000    0.91330000000000
H         0.87260000000000   -2.23030000000000    1.54050000000000
B         0.50670000000000    0.41560000000001   -0.81540000000000
O         0.19500000000000   -0.04699999999999   -2.09150000000001
C         0.00650000000001    1.10039999999999   -2.95429999999998
C         0.49020000000001    0.74740000000001   -4.35780000000001
H         1.51609999999998    0.37380000000000   -4.33700000000000
H         0.44730000000000    1.62240000000001   -5.01670000000000
H        -0.14740000000000   -0.03389999999998   -4.78429999999999
C        -1.50119999999998    1.39559999999999   -2.96670000000001
H        -1.75370000000000    2.21460000000001   -3.64850000000000
H        -2.03199999999999    0.49450000000003   -3.28930000000000
H        -1.85170000000000    1.65210000000000   -1.96220000000000
C         0.84230000000001    2.20670000000000   -2.22040000000000
O         0.75200000000000    1.78260000000001   -0.83690000000001
C         2.32930000000002    2.18619999999998   -2.59899999999999
H         2.74130000000000    1.18500000000000   -2.45750000000000
H         2.48870000000000    2.51300000000000   -3.63180000000000
H         2.87200000000001    2.86270000000000   -1.93199999999999
C         0.28439999999998    3.62290000000000   -2.33660000000000
H        -0.72650000000000    3.69040000000000   -1.92910000000000
H         0.92130000000000    4.31480000000001   -1.77609999999999
H         0.26430000000000    3.94810000000000   -3.38320000000001
B         1.56300000000000    0.60960000000000    1.84840000000000
O         2.92780000000000    0.55230000000000    2.15020000000000
C         3.36330000000002    1.88660000000000    2.50260000000001
C         4.53140000000000    1.78590000000001    3.47740000000001
H         4.27910000000000    1.16089999999999    4.33690000000000
H         5.39390000000001    1.33790000000001    2.97340000000000
H         4.82390000000000    2.77870000000000    3.83820000000000
C         3.79700000000000    2.56850000000000    1.19670000000000
H         4.20020000000000    3.57090000000000    1.37680000000000
H         4.56740000000000    1.95560000000000    0.72110000000000
H         2.95240000000000    2.63260000000000    0.50540000000000
C         2.05040000000001    2.50090000000000    3.09320000000002
O         1.03750000000001    1.81620000000000    2.31910000000000
C         1.89100000000001    4.00450000000000    2.88649999999999
H         1.87290000000000    4.25440000000000    1.82409999999999
H         0.94940000000000    4.34259999999999    3.33170000000000
H         2.71080000000000    4.55149999999999    3.36630000000000
C         1.82470000000004    2.13199999999999    4.56520000000002
H         1.92610000000000    1.05330000000000    4.71320000000000
H         2.52610000000000    2.65279999999999    5.22539999999999
H         0.80630000000001    2.41580000000000    4.84900000000000
B         2.27820000000001   -1.33090000000000    0.17410000000000
O         2.89460000000002   -2.57740000000000    0.38450000000000
C         4.26930000000001   -2.48200000000001   -0.07210000000002
C         5.10900000000000   -2.05380000000000    1.14009999999997
H         4.76350000000000   -1.08740000000001    1.51750000000000
H         4.98050000000000   -2.79469999999999    1.93590000000000
H         6.17420000000000   -1.99290000000000    0.89300000000000
C         4.71950000000000   -3.84660000000002   -0.58470000000005
H         4.75280000000000   -4.56130000000002    0.24419999999999
H         5.72330000000001   -3.78370000000000   -1.02010000000001
H         4.03500000000000   -4.23600000000000   -1.34169999999999
C         4.16440000000000   -1.36220000000000   -1.16300000000000
O         3.08520000000000   -0.55030000000000   -0.65399999999999
C         5.40719999999998   -0.48870000000000   -1.31550000000002
H         6.27319999999999   -1.09010000000000   -1.61530000000000
H         5.23300000000000    0.26930000000001   -2.08590000000000
H         5.64270000000001    0.02650000000000   -0.38240000000001
C         3.71799999999997   -1.89830000000000   -2.53110000000000
H         2.82530000000002   -2.52160000000001   -2.42740000000000
H         3.46090000000000   -1.05250000000001   -3.17550000000001
H         4.50570000000000   -2.48290000000001   -3.01790000000000
H        -3.38500000000000   -4.00130000000000   -2.59310000000001
H        -5.21400000000000    1.52080000000000    1.29960000000000
C         0.23590000000002   -1.68140000000000    2.96030000000000
C        -0.98155563982094   -2.08175456344027    3.48121803257578
C         1.34785793501612   -1.86390757249103    3.83772688375588
C        -1.08635204996365   -2.54199849450691    4.80342336584956
H        -1.88085327947536   -2.08793091174608    2.87776361938759
C         2.68912580368481   -1.78252004001123    3.42212047421336
C         1.15349062640150   -2.25815910440018    5.18997756208696
N        -0.07007111574755   -2.58941682257784    5.64893093822055
C        -2.37588563349175   -3.09375714307516    5.33261081957671
C         3.74620927093692   -1.95002255194309    4.28280093903441
H         2.87780333238620   -1.60018900901988    2.38089555121579
C         2.24432841299648   -2.43173261116212    6.06079275552529
H        -2.18866865650874   -3.53707138089978    6.31049979486360
H        -2.75981830533230   -3.86015720682762    4.65806048696639
H        -3.12585033912211   -2.30859123220538    5.43197366236138
C         3.54792987123553   -2.26842277998637    5.63063753407564
H         4.75944198176963   -1.85317002374235    3.91393159169708
H         2.03272042896953   -2.74062155015612    7.07680660119863
C         4.75387451825683   -2.46810018260540    6.49894028794568
H         5.30677543323630   -1.53121102905109    6.59314227521513
H         5.42600854916043   -3.19419420494466    6.03665860941575
H         4.48563751599018   -2.82064678753572    7.49368320705585
