107
 energy: -152.651466502501 gnorm: 0.000406323399 xtb: 6.4.1 (1a32961)
N        -0.94048515523851   -2.01546986546558   -0.35623502385053
C        -2.21518537257400   -1.58889548117929   -0.44038345660355
C        -3.14226349148833   -2.25111390001742   -1.25715469414058
C        -2.74560896525223   -3.33686622178771   -2.00556466949643
C        -1.41807846772476   -3.75243416170201   -1.92469232361148
C        -0.56760551156958   -3.06275384218375   -1.08658277655334
H         0.46740255862596   -3.35619550463488   -0.98151469258481
H        -1.06216913485108   -4.59509975912580   -2.49461235185109
H        -4.16701663490153   -1.92107441694977   -1.30216559505112
C        -2.55897762179872   -0.41563034241153    0.35107883260648
N        -1.59309814267315    0.07099688693989    1.15970209881302
C        -1.86437214500310    1.13969784217602    1.90625492942998
C        -3.08171734325060    1.78809754430632    1.89469465799729
C        -4.08251152734898    1.31023942463082    1.05121272002348
C        -3.81307532852129    0.20442098918166    0.27517833136587
H        -4.57142204384214   -0.17341618400388   -0.39029224295342
H        -3.24903916480616    2.64279225555038    2.53019696804660
H        -1.05437804746428    1.47913111664543    2.53357474990297
Ir        0.42149999999987   -0.81649999999997    0.91330000000005
H         0.87260000000000   -2.23029999999999    1.54050000000007
B         0.33775490325118    0.67449938133146   -0.54697599166326
O        -0.33607211533482    0.42579150213273   -1.72871283940584
C        -0.49682520721001    1.64268184594837   -2.46645535460606
C        -0.28977152845475    1.37409405633011   -3.95477569105237
H         0.64475453539488    0.84953691300804   -4.12376818458011
H        -0.28968188479838    2.31061029526564   -4.50646103509865
H        -1.10119546268885    0.75011386666378   -4.32210719938544
C        -1.93675181717677    2.12353148888079   -2.23523742711890
H        -2.14942669431795    3.01788289655694   -2.81338467047457
H        -2.62111911557136    1.33367816525007   -2.53887891569439
H        -2.10073574701014    2.32305359778074   -1.17813997888752
C         0.56537219733204    2.58215706142924   -1.80765368998474
O         0.74140426367334    1.98995261486229   -0.51294246270857
C         1.92539244565038    2.51363612288845   -2.51286230140564
H         2.25707239264246    1.47857722721376   -2.54683057756931
H         1.87504944237075    2.93257054160646   -3.51373137448847
H         2.65034234368814    3.07585910506270   -1.92901167590759
C         0.13674569513641    4.04089504994988   -1.66251152469352
H        -0.72247362645252    4.13623606637199   -1.00574523678642
H         0.95617350910438    4.61217446867250   -1.23303232618335
H        -0.10519594655677    4.45568043358101   -2.63774156757983
B         1.57947947574914    0.63664201101834    1.87417249850937
O         2.92714286380088    0.86682758945840    1.75201337833040
C         3.28984114914522    2.09286678541635    2.40178797518636
C         4.59841343008401    1.89459879493948    3.16589889841090
H         4.52727539128728    1.04442789551027    3.83588767441479
H         5.39794463980779    1.70175935805411    2.45522642422860
H         4.84221206454097    2.78916022365654    3.73216092857402
C         3.49726102830873    3.12926875222367    1.29085147156492
H         3.74926979083070    4.10474060626766    1.69582018823068
H         4.30844766907569    2.79134044252566    0.64996224554529
H         2.59556983338016    3.18615677708084    0.68706910237251
C         2.04160369078099    2.39671548659023    3.30275299884476
O         1.02839288558198    1.55025496128090    2.74382985134047
C         1.55649563248027    3.84600217840868    3.25939165470854
H         1.24364706929470    4.11692923526394    2.25641478599136
H         0.70233325499232    3.95207107964881    3.92380171706151
H         2.34351931823831    4.51650911013935    3.59305743237062
C         2.22734316762060    1.97717393427817    4.76602051623626
H         2.52193431929844    0.93351757689307    4.82538081465228
H         2.96663129091413    2.60062994620463    5.25912107533020
H         1.27600270389575    2.08228901902538    5.28253300963459
B         2.27820000000149   -1.33090000000021    0.17409999999998
O         3.17470627540204   -2.25881659938775    0.65837385512662
C         4.40945963778385   -2.18418271227055   -0.06833517701540
C         5.38178357999649   -1.38492961280519    0.80573692462771
H         4.93616835054491   -0.42177826776143    1.03896121875102
H         5.52834119980504   -1.92347304082344    1.73882980776441
H         6.34224535547846   -1.25570535059770    0.31680019360040
C         4.95930572725122   -3.59300201600557   -0.28573533386595
H         5.20570372798303   -4.02660479424189    0.67983041862349
H         5.85832101543223   -3.55161635518170   -0.89429491375960
H         4.22656505277713   -4.23386973489977   -0.76458984828099
C         3.99605430130016   -1.42249045737313   -1.37551899825421
O         2.75931857710348   -0.79802208189636   -1.00072447085923
C         4.98178743831530   -0.34827872957150   -1.83163712921956
H         5.96074601670992   -0.78396823827943   -2.01120219750862
H         4.62048302780066    0.09581885157355   -2.75582274081884
H         5.05699419038148    0.43595876927006   -1.08638262960664
C         3.69251819663745   -2.35904486292561   -2.55308276654174
H         2.96910853313756   -3.11382445236077   -2.25721590670978
H         3.25372065229795   -1.77308705556253   -3.35710941805087
H         4.59709496007315   -2.83757311319483   -2.91578742186823
H        -3.44940342912051   -3.85387073562582   -2.64002575724431
H        -5.04647070071059    1.79400725691049    1.00502008121523
C         0.23590000000293   -1.68140000000050    2.96030000000034
C        -1.06649388573203   -1.94336462228184    3.31982861470754
C         1.19750326006260   -1.66513909697925    4.00710250119175
C        -1.43698204951770   -2.01000375649847    4.67928779566114
H        -1.84540854956281   -2.09094705780531    2.58505954142725
C         2.59024785542073   -1.62288281954932    3.79792107553798
C         0.73121280082016   -1.75466252586916    5.35040209223707
N        -0.57633975614702   -1.89218577359583    5.65748371090765
C        -2.87385058711367   -2.22672738106452    5.05092365968787
C         3.46248161157006   -1.63647167166549    4.85142298641352
H         2.94609481596846   -1.59602976542402    2.78200467523849
C         1.65674498238886   -1.73963458507965    6.41363542434073
H        -2.95884775543284   -2.32978618151511    6.12862718449962
H        -3.25591912855496   -3.12468660803343    4.56827693529382
H        -3.47730699285458   -1.38127632145066    4.72397132024854
C         3.00659220912757   -1.68170800446735    6.18400354462417
H         4.52793649263277   -1.61605377184381    4.66877221311866
H         1.26157475924945   -1.79952298498645    7.41667385188527
C         4.00122058572917   -1.68860639639869    7.30533496521750
H         4.64237393252004   -0.81025569076897    7.24792662605400
H         4.63791972532914   -2.56985618691789    7.23557988222653
H         3.49933557039397   -1.69542639324946    8.26889293724939
