26
 energy: -38.525945976301 gnorm: 0.000128643795 xtb: 6.4.1 (1a32961)
C         1.01116063321303   -1.41852052601342    0.08163650311388
C         2.15686256786901   -0.65716713304527    0.04047174803767
C         2.10219677430008    0.73803764990403   -0.04992198458975
C         0.89807578813773    1.40717495025612   -0.10471196588881
C        -0.26365885967437    0.64542003899793   -0.06810250322546
N        -1.57246985532925    1.01939303373568   -0.11858969876482
C        -2.37318827944877   -0.09549001503368   -0.03009134375134
C        -3.82405295722859   -0.00750883878527   -0.05823603311286
C        -4.47406578187637    1.05225664341565   -0.69392313015139
C        -5.85458823817403    1.12245023182168   -0.71260686438705
C        -6.61317738408546    0.13932861115675   -0.09852165811330
C        -5.97956591793787   -0.92094712745362    0.53072376208491
C        -4.60025475976571   -0.99558135262000    0.55095684155991
C        -1.57233519579811   -1.20867099729298    0.06135975045996
C        -0.22425036568252   -0.76895375847180    0.03284945881619
H         1.05967196513274   -2.49539769422535    0.15340806396208
H         3.12292703738644   -1.14023337454626    0.07771630278061
H         3.02542897615793    1.29852173189605   -0.07756716458445
H         0.85927341670315    2.48422000746861   -0.17681904391575
H        -1.90622596352346    1.96774214075804   -0.13773164207553
H        -3.89913804218948    1.81393294165707   -1.20028120373328
H        -6.34211556814183    1.94682716055648   -1.21275084844630
H        -7.69141519005791    0.19738014558326   -0.11233805860350
H        -6.56518820070105   -1.69092086682284    1.01163511027228
H        -4.11125562959783   -1.81586652406438    1.05368077310963
H        -1.90070096968752   -2.22767707883239    0.11616482914654
