94
 energy: -134.560055069586 gnorm: 0.000247656494 xtb: 6.4.1 (1a32961)
N        -0.89737246833361   -2.04618223938309   -0.35566154531541
C        -2.15621204094965   -1.59277147015990   -0.52422715331930
C        -3.03879498117134   -2.23107604719323   -1.40697644522740
C        -2.61924829550201   -3.32834243902960   -2.12423850846488
C        -1.31165775299332   -3.77961576563266   -1.94682478279366
C        -0.50325416867775   -3.10724186222249   -1.05614173077452
H         0.51430210897667   -3.42744949019233   -0.87992268771068
H        -0.94012276017951   -4.63527699248380   -2.48721195355454
H        -4.04791671893836   -1.87197354486637   -1.52717612741672
C        -2.52446102235076   -0.42354130967979    0.25744603914812
N        -1.58974772513400    0.04357533614182    1.11672341336004
C        -1.88977699093249    1.10374605631313    1.86646041887513
C        -3.09792804964543    1.76523156909547    1.80461833831795
C        -4.06234455452052    1.31067005019203    0.90617219956270
C        -3.76781975956938    0.21061681219382    0.13191304225526
H        -4.49760891549256   -0.15336075857636   -0.57258934237187
H        -3.28683160573356    2.61596003995576    2.43940697677856
H        -1.10648734292788    1.42907982778795    2.53354227528830
Ir        0.42149999999998   -0.81650000000003    0.91330000000004
H         0.87260000000000   -2.23029999999992    1.54049999999993
B         0.43255299462175    0.59136656304538   -0.62463121824619
O        -0.15419091223881    0.25484506811551   -1.83269805784397
C        -0.23155944657411    1.40360493234632   -2.68092702482456
C         0.10387935932800    1.00332298409869   -4.11592736416842
H         1.04189241414754    0.45909041581406   -4.15127366574360
H         0.16728303915948    1.88564159169425   -4.74769595753907
H        -0.68014612543864    0.35336811964896   -4.49748291544043
C        -1.68110814566230    1.90751026673397   -2.62261753579959
H        -1.82976976622386    2.75651956156360   -3.28342858669870
H        -2.34200086807349    1.09869790885261   -2.92897386850484
H        -1.94009661936652    2.18485004967352   -1.60259559941001
C         0.78255175241792    2.39020123843696   -2.01350160848217
O         0.85388712483065    1.90222447122143   -0.66760828620062
C         2.19373278241138    2.26770867016524   -2.60208017857490
H         2.52544304414468    1.23601380659706   -2.51359285081409
H         2.22360699443687    2.59394391690087   -3.63785076752690
H         2.87095030204675    2.88503040557231   -2.01623892509622
C         0.35394749672871    3.85655833204629   -2.01676012568264
H        -0.55736695392068    4.00269044893622   -1.44521665684545
H         1.13803752930131    4.45741612412938   -1.56225005193941
H         0.20005946045963    4.19637952230572   -3.03790364212579
B         1.56738425998259    0.63187442986243    1.88961361573113
O         2.94115233774563    0.71732438360272    1.95563078273404
C         3.32867997193344    2.00445933006444    2.45372841860598
C         4.54804612896227    1.86597599524635    3.36383284140432
H         4.37453810553433    1.12715728987166    4.13906283477253
H         5.39987053320641    1.54115816167199    2.77167659898813
H         4.78404162271466    2.82406864073471    3.81938674260171
C         3.69370252022070    2.85263246527471    1.22906660447095
H         3.99223670296820    3.85802235744728    1.51153671460702
H         4.51767206327175    2.37162356557396    0.70683032079718
H         2.84195409695919    2.87932336508104    0.55406123075445
C         2.02568242560488    2.50338273598899    3.16476607145662
O         1.00753967661064    1.70472285195213    2.55037931129202
C         1.70484319812575    3.98199082382327    2.95212698206785
H         1.51639600311613    4.18292379870381    1.90282797635117
H         0.80970821439732    4.23768976436699    3.51382215331987
H         2.52746060899980    4.59929316877047    3.30315048580289
C         2.00329218334257    2.18994061049099    4.66654734186095
H         2.18173632972286    1.13000339534581    4.82582389268475
H         2.74337637792429    2.77871023480123    5.20006348808296
H         1.01591645985456    2.42514168774561    5.05673831358550
B         2.27820000000041   -1.33090000000052    0.17409999999940
O         3.05745591301010   -2.37713853928272    0.62946486540955
C         4.35839675971923   -2.32399258665964    0.03324712919637
C         5.28673429551963   -1.68434092940298    1.07185004171315
H         4.87728996121631   -0.72016216936396    1.36079568785340
H         5.30306000032456   -2.31853644705996    1.95468497647461
H         6.29833696266651   -1.57704936964033    0.69246717085600
C         4.83983901952064   -3.74121700897464   -0.27575411684176
H         4.95117787647483   -4.28400930899881    0.65916829344221
H         5.80105384529447   -3.70718632660032   -0.78114992784830
H         4.12501001124398   -4.27609550578991   -0.89214893521594
C         4.12507839182621   -1.41145054213125   -1.22022535657918
O         2.90883351647087   -0.72516459150225   -0.89152809581783
C         5.22876966545508   -0.38824444037332   -1.48226407298152
H         6.18215184421425   -0.88979886690969   -1.62459782085200
H         4.98917551669592    0.17378627976548   -2.38161977124506
H         5.29960771925314    0.31012602795077   -0.65571522937665
C         3.86326805542418   -2.20804766990918   -2.50623214305980
H         3.05378471361395   -2.91603873510205   -2.34988598741997
H         3.55590723340526   -1.51639736488262   -3.28738245863303
H         4.75691503634422   -2.73279819294074   -2.83045860890239
H        -3.28869409628943   -3.82825554588161   -2.80791929097190
H        -5.01676774455364    1.80771882582189    0.81739004205493
C         0.23590000000009   -1.68139999999947    2.96030000000038
C        -0.99186875872167   -2.01491734560889    3.48101727661668
C         1.11474272419659   -1.57064870886433    4.06693056493698
N        -0.89543060152684   -2.06451548639615    4.84057980889310
H        -1.92574149146156   -2.21623526094167    2.99198364233221
C         0.38707673618507   -1.79515817209988    5.20325414303635
H         2.16158277185007   -1.35014628166677    4.00521750353926
H        -1.65027262587250   -2.26814341174997    5.47375032764077
H         0.68379446403563   -1.78735666901644    6.23420210152248
