101
 energy: -145.444254989873 gnorm: 0.000178547997 xtb: 6.4.1 (1a32961)
N        -0.89127957228535   -2.01704209930121   -0.38832073827888
C        -2.14526808944814   -1.55681194486817   -0.54965059550107
C        -3.02614228502164   -2.17093272438210   -1.44837841497003
C        -2.60927953892373   -3.25729976419879   -2.18508757425802
C        -1.30664270872724   -3.71865671025772   -2.01213256797023
C        -0.49817929504976   -3.06566305422813   -1.10652992106930
H         0.51833914350885   -3.39145858158769   -0.93403062307658
H        -0.93692492827448   -4.56702335292901   -2.56508631220084
H        -4.03309146801518   -1.80616669044170   -1.56363046117017
C        -2.51950110255932   -0.40718317064164    0.26226251281189
N        -1.58793837118012    0.05003264365073    1.12512647655427
C        -1.89858578358037    1.07864821408610    1.91215484747929
C        -3.12041825024975    1.71772452246784    1.88578060516653
C        -4.08204839564322    1.27488528940276    0.98167369679346
C        -3.77308729724340    0.20749967439927    0.16723183421227
H        -4.50458395329754   -0.15093734582106   -0.53725302318857
H        -3.31932502233232    2.54059022173668    2.55342631885237
H        -1.11327594280428    1.39851220066985    2.58031403984556
Ir        0.42149999999998   -0.81649999999990    0.91329999999983
H         0.87260000000003   -2.23030000000021    1.54049999999973
B         0.42056420784678    0.62531037357391   -0.59175844342902
O        -0.19354298689944    0.34530657946859   -1.79897896103335
C        -0.29471170926338    1.53608267760696   -2.58620886937182
C        -0.00775196006836    1.21083846180765   -4.05005743786499
H         0.92819645063991    0.67046279461013   -4.14615930950698
H         0.03511180192117    2.12573663826474   -4.63547267957287
H        -0.80496156918283    0.58161590709809   -4.43872959053157
C        -1.73913185435242    2.04040878565793   -2.45425478587497
H        -1.90535477209935    2.92091060693033   -3.06780961149252
H        -2.41390659759001    1.24964947280670   -2.77670207469652
H        -1.96318823400392    2.26884891173777   -1.41397598748373
C         0.74354450614929    2.48545403286372   -1.90295960955015
O         0.84673721353442    1.93468781107822   -0.58296900205867
C         2.13779825219952    2.38100502956537   -2.53352499538891
H         2.46119131027164    1.34304990153328   -2.50992722253650
H         2.14370017818763    2.76170334091458   -3.55079750836401
H         2.83614960348277    2.96007397001921   -1.93370027589628
C         0.32536280051741    3.95262228597594   -1.82745495486097
H        -0.56985777657361    4.07744231427405   -1.22620249744738
H         1.12539476456079    4.52745469595565   -1.36718329383838
H         0.14716127371287    4.33949286971653   -2.82765020925378
B         1.56443801195035    0.62305339183476    1.91114136151639
O         2.93537126997262    0.73399805981947    1.95179240856964
C         3.31063426211637    2.00256711541652    2.50733523393250
C         4.54627131266152    1.83855653443290    3.39088882923047
H         4.39875194537678    1.05530131139741    4.12672991261509
H         5.39479647472428    1.56329322520783    2.76990601477683
H         4.77106652948223    2.77477763514524    3.89473335039995
C         3.64314453674090    2.91553588890348    1.32111676890540
H         3.92924653086295    3.91047700234135    1.64928136553419
H         4.46720198213959    2.47487741117699    0.76446992442171
H         2.78128576327299    2.96134157639474    0.66023740769229
C         2.01190112819332    2.44339334808397    3.26359111501158
O         0.99674442579619    1.65120371098980    2.63313837696711
C         1.65842523943916    3.92307197854870    3.12502843427438
H         1.45513132132825    4.17158115565128    2.08888739109761
H         0.76406935200233    4.13211600817729    3.70687596523613
H         2.47154758649725    4.53972288091967    3.49856922878662
C         2.02240695789792    2.06278718448429    4.74980362935097
H         2.21925567133373    0.99993785414026    4.85756682694909
H         2.76369076484655    2.63777223852401    5.29604388660011
H         1.03899622749104    2.26611643024047    5.16680630184309
B         2.27819999999992   -1.33089999999938    0.17409999999914
O         3.09282311630308   -2.33088290175316    0.66663793282237
C         4.38077359999021   -2.27735923699500    0.03976049494549
C         5.31798833952877   -1.57847276719589    1.03081973080285
H         4.89350690576192   -0.61349044388445    1.29337252398641
H         5.37022803276741   -2.17869330480135    1.93559672372340
H         6.31739021694868   -1.46354429607653    0.62278579610287
C         4.88328514938393   -3.69702847605102   -0.22098599529962
H         5.02695653275487   -4.19836024151702    0.73250487623104
H         5.83170531195658   -3.66567120776858   -0.75000949870227
H         4.16570878393228   -4.27122707565086   -0.79749826302999
C         4.10365364370463   -1.42334176557442   -1.24620572822044
O         2.87203482222314   -0.75815631178689   -0.92800181089126
C         5.17145558202242   -0.37809489787215   -1.56405432134733
H         6.13798045324890   -0.85511598097238   -1.70103567555260
H         4.90169218154461    0.13940511283988   -2.48128868015938
H         5.23111557397359    0.35492413807373   -0.76711547040468
C         3.84803065085428   -2.27703621234208   -2.49593768313561
H         3.06544623628272   -3.00489000450226   -2.29969591165163
H         3.50487055336404   -1.62617389645331   -3.29663966720217
H         4.75333112787074   -2.78448623638669   -2.81521680824917
H        -3.27957387065083   -3.74036706377199   -2.87976013284019
H        -5.04810706212751    1.75274578125760    0.91979198203240
C         0.23589999999915   -1.68139999999922    2.96029999999919
C        -0.99640015590814   -2.05277507083553    3.50599574758770
C         1.12024168048978   -1.60459182471731    4.05086700013230
N        -0.86600165484868   -2.14521893537008    4.88077151146093
C        -2.18784321616731   -2.33506791142776    2.85810147344296
C         0.42130327733312   -1.87299551100618    5.20945819433565
H         2.16492244069314   -1.37809490299186    3.97664299490672
C        -1.91753585562712   -2.47410093460631    5.80269623753534
N        -3.18004868533190   -2.59153878574324    2.32424452382121
C         0.89506120593503   -1.90558381041652    6.61856082165997
H        -2.83941494458907   -2.63964401963499    5.24745020009712
H        -2.07263513511301   -1.65953389539954    6.51362686383751
H        -1.67060060375686   -3.38209389768345    6.35747652041602
H         1.95414235642535   -1.66896075063128    6.64996672818780
H         0.74424715131075   -2.89327091709019    7.05436378000466
H         0.35519631806675   -1.18155056934752    7.22851480570039
