99
 energy: -144.446008824885 gnorm: 0.000200510638 xtb: 6.4.1 (1a32961)
N        -0.94559864007882   -2.01891017949280   -0.38467082823476
C        -2.18101474609168   -1.51292278108526   -0.55708864458159
C        -3.01991640263583   -1.98923424045766   -1.57120487026034
C        -2.58155705798841   -2.99401271083069   -2.40653887242525
C        -1.30486486883009   -3.51349931316847   -2.21165900380898
C        -0.53407406343862   -2.99095836251010   -1.19370742557139
H         0.46283109632408   -3.36255830660589   -1.00331835479124
H        -0.92268214420265   -4.30180796649365   -2.83936619296952
H        -4.00194123327975   -1.56964639127546   -1.71459238188015
C        -2.57250929012941   -0.44300414474967    0.35550445140917
N        -1.61811061147283    0.01015539694917    1.19559213362069
C        -1.92381289405872    0.98716025851212    2.04622726677795
C        -3.17468753518128    1.56669579808723    2.12028239861051
C        -4.17111372457717    1.10860158417339    1.26306196950920
C        -3.86301953483158    0.09897557548281    0.37575328712977
H        -4.62401285163056   -0.27315541984847   -0.28966220189487
H        -3.36952684417396    2.34995439730846    2.83446653948631
H        -1.11517917274267    1.31212355010476    2.68280434011947
Ir        0.42150000000004   -0.81649999999994    0.91330000000010
H         0.87260000000005   -2.23029999999995    1.54050000000016
B         0.38031790823742    0.60016702479106   -0.61470855359983
O        -0.30212317759916    0.32033402057753   -1.78668966850355
C        -0.43270764137855    1.50995818877771   -2.57180958984063
C        -0.24737915603568    1.17515240598069   -4.04936690065782
H         0.66945576725256    0.61641814133649   -4.20498733959669
H        -0.22455596209173    2.08754034639162   -4.63955032511480
H        -1.08061402246063    0.56121488104245   -4.38328243307117
C        -1.85650436683326    2.04020262941302   -2.34719225689886
H        -2.04707472794640    2.92256352968218   -2.95071758557939
H        -2.56510207808684    1.26157107516254   -2.62314742784325
H        -2.00628757653355    2.27529127679809   -1.29512658884359
C         0.66276088409619    2.44190195674137   -1.95885260621679
O         0.82644724240374    1.90051095870918   -0.64085196639601
C         2.01646766054888    2.29777631592759   -2.66470713741938
H         2.31316939441761    1.25162438921174   -2.65543847734420
H         1.97684089395030    2.67622925904160   -3.68208338216170
H         2.76163326332840    2.85847312738180   -2.10537189151406
C         0.28202759927930    3.91852414300258   -1.87568508855315
H        -0.56917582495151    4.06987810483598   -1.21909636359532
H         1.12229872136421    4.48116033052500   -1.47611716194229
H         0.04701883872478    4.29795466960918   -2.86691888986523
B         1.57519786824874    0.64335427736992    1.85857139257967
O         2.93831778166083    0.79868564944518    1.85142632283180
C         3.28658622972981    2.08228102681408    2.39268553129693
C         4.55450291856418    1.96529134514002    3.23633708838164
H         4.45906099231414    1.18176287484244    3.98057073161590
H         5.39203803459422    1.71722637818334    2.58936782532743
H         4.76200821350389    2.91150014552139    3.72871717592061
C         3.54939767235009    3.00219070529724    1.19448111046856
H         3.80855399585048    4.00772152324030    1.51218876443308
H         4.37269170033631    2.59019213981632    0.61536206008221
H         2.66758408866332    3.01446892763792    0.55912780585975
C         1.99719868947330    2.47954886155067    3.18892613649019
O         0.99033742426527    1.65304273907788    2.58812357394478
C         1.58881685473847    3.94575621523728    3.06076825934001
H         1.34017215124783    4.18427452765583    2.03208681373464
H         0.71020843011521    4.12579457156131    3.67534079701072
H         2.39320964230256    4.59078950817512    3.40368734986576
C         2.06731680264837    2.09989067242012    4.67346499761887
H         2.30738742269136    1.04539174794679    4.77603333137139
H         2.80385295429621    2.70142827947540    5.19716397363858
H         1.09166371494110    2.26453390667281    5.12480296681487
B         2.27820000000082   -1.33089999999987    0.17410000000068
O         3.11034564617103   -2.29184090809295    0.70347543420922
C         4.39519420226083   -2.24408236605327    0.06891936826096
C         5.33428732403355   -1.52375203181855    1.04218580157834
H         4.90567910171103   -0.55821262293324    1.29484932972113
H         5.39834923941416   -2.11047369476369    1.95503322930043
H         6.32967875139254   -1.40748388128646    0.62502685233521
C         4.90046716551097   -3.66831318771805   -0.16192605584434
H         5.03834734088522   -4.14998879038333    0.80246025019829
H         5.85237886560672   -3.64724119733133   -0.68483852710280
H         4.18707391386994   -4.25493234038406   -0.73096598627745
C         4.10965097346304   -1.41952009252703   -1.23704767863231
O         2.85100730459498   -0.78997759828379   -0.95197046078822
C         5.14315558274125   -0.33917821862470   -1.55151962079795
H         6.12693052562844   -0.78147223070552   -1.68096224457461
H         4.86000213948636    0.16543407828535   -2.47186483384664
H         5.17078354397464    0.39789432888042   -0.75670725599713
C         3.90781267091162   -2.29659784259830   -2.48003727194850
H         3.13839061350847   -3.04087860597435   -2.29515265159266
H         3.57346057565504   -1.66526750214808   -3.29971269641077
H         4.83339405188614   -2.78632864813454   -2.76667260351780
H        -3.21592836212862   -3.36730630832622   -3.19592347948256
H        -5.16408622796592    1.53070471597560    1.29160296978885
C         0.23590000000140   -1.68139999999809    2.96029999999843
N        -1.01850216945193   -2.07333628463815    3.35851604716846
C         1.04090778780839   -1.59828732276131    4.07260794967240
C        -1.05693894199227   -2.19262767651344    4.71795213088701
H        -1.79716631943367   -2.23299035178204    2.74330641757206
C         0.24774248368208   -1.89434498358954    5.20630203719205
H         2.08381055574874   -1.35420835724874    4.06481469745326
C        -2.06910810896058   -2.52704265408874    5.60234144413606
C         0.45189651547687   -1.96331280491810    6.58745051811463
N        -1.85305777680506   -2.58227804338345    6.90451318187070
H        -3.07596811773291   -2.75903100421226    5.27545545977008
C        -0.62963240630235   -2.30922234566672    7.36878591522304
H         1.41542760903051   -1.75401953215733    7.02662400015424
H        -0.53600197839425   -2.37896893310894    8.44566168006104
