15
 energy: -19.059165701076 gnorm: 0.000119957279 xtb: 6.4.0 (f63f532)
C         0.27279150964383    1.19864331054199   -0.00167609969545
C         0.98430324134790    0.00615391702534   -0.00514130377412
C         2.48387241976099   -0.00597069088012   -0.01056523439236
C         0.27530197953734   -1.19098227005181   -0.00369853197767
C        -1.10764581613857   -1.19565591849339    0.00072408171474
C        -1.80677524260842    0.00068258412413    0.00420448568123
C        -1.11222609002067    1.19785617508050    0.00290561930173
H         0.80667173297900    2.13883924695155   -0.00258411456798
H         2.88157317643439    1.00555634816180    0.00301557905350
H         2.85501659942233   -0.51454293695995   -0.89968791022576
H         2.86112504659612   -0.54141205067619    0.85982278486337
H         0.81642077544371   -2.12698436974763   -0.00639712440660
H        -1.64297949007920   -2.13450147001592    0.00195951613891
H        -2.88701394738224   -0.00131933365954    0.00851675490757
H        -1.64995589493651    2.13531745859926    0.00603149737886
