41
 energy: -55.875332376461 gnorm: 0.000084286698 xtb: 6.4.1 (1a32961)
C         1.72442734496305    1.98504499447074   -0.07423313555790
C         3.09932891581100    1.88188317181823   -0.15401451239895
C         3.72180580023868    0.64646444334678   -0.33385887487998
C         2.98873909168421   -0.51917893081846   -0.43977532308477
C         1.60729328424857   -0.41927319872227   -0.35639488175426
N         0.65307507158423   -1.39431800227040   -0.44433830223754
O         0.93057595283080   -2.73813093440080   -0.53389026232586
Si        1.14620949422865   -3.76486624790779    0.78221666485459
C         2.37807871310870   -5.01513018296730    0.05862494748900
C         1.82152612602526   -2.78577175001769    2.26845184320406
C        -0.50512404014450   -4.60050798101983    1.23602699621352
C        -0.59134722090383   -0.84684221695803   -0.28648129872935
C        -1.84152386260241   -1.44703579265934   -0.28928605368102
C        -2.94405821254206   -0.63390640211012   -0.11985407279762
C        -2.83074507282238    0.75155461095836    0.04058208376736
C        -4.06480900819809    1.58228125976346    0.26453513186191
C        -4.43238358880451    1.62146226110645    1.75028593492464
C        -1.57917935964955    1.34408481960174    0.03427832858464
C        -0.44850504128955    0.55341767498990   -0.12793591084946
C         0.96044319679957    0.82836980138947   -0.17310001097505
H         1.24846666163028    2.94421913164749    0.06299556666776
H         3.70740328624233    2.77116660063522   -0.07857012298468
H         4.79939369228823    0.60281871699640   -0.39314652892672
H         3.46373072299666   -1.47721889606603   -0.58549731503677
H         3.36731289517357   -4.58437770863667   -0.06101400775004
H         2.05135222478986   -5.36206288387151   -0.91663274891517
H         2.47092708834625   -5.88014907453411    0.70608492979176
H         2.76363397131421   -2.29881363739124    2.03135458057637
H         1.98884590327493   -3.42734327597784    3.12704560561464
H         1.12380489101721   -2.00838984945564    2.57126309922809
H        -0.97100164158678   -5.04763202837127    0.36183819856927
H        -1.21429033014266   -3.89877923372333    1.66679865953163
H        -0.34998565748855   -5.39209039330234    1.96203460258767
H        -1.94217827126911   -2.51236733886832   -0.42437388707136
H        -3.92890940819241   -1.07867252831564   -0.11564450832735
H        -4.90041353551486    1.16425108802940   -0.30078659077104
H        -3.89128458396033    2.60074013748903   -0.08830755064390
H        -4.63141506448958    0.61729842586120    2.11809851766226
H        -5.31923104892445    2.23158629657022    1.90616319903731
H        -3.61380754331441    2.04176199447721    2.33071660793980
H        -1.48034183675760    2.41310305921461    0.15296040159264
