10
 energy: -16.431410447765 gnorm: 0.000095297835 xtb: 6.4.1 (1a32961)
C         1.12811708319878   -0.76511784537871    0.01043217720679
N         1.21909925670655    0.55741041142620    0.01128952141502
C         0.08195832460572    1.23025774033906   -0.00360924774832
N        -1.13513648157448    0.71608261979150   -0.01909935278699
C        -1.22207496151918   -0.60678427689039   -0.01952821640524
C        -0.09634234285150   -1.41870631210911   -0.00493069780183
H         2.06751946027715   -1.30234521311036    0.02288239100469
H         0.15487361412070    2.31036000483993   -0.00300989316830
H        -2.22495491757655   -1.01360811532876   -0.03236110989055
H        -0.16844903538719   -2.49333901357937   -0.00520557182527
