12
 energy: -24.171411520719 gnorm: 0.000224483745 xtb: 6.4.1 (1a32961)
C         0.21860052339961    1.22442046611084    0.00584096443519
C        -1.16552536738379    1.21712656225387    0.00236923105197
C        -1.82447115253563    0.00109836554175    0.00240834573872
F        -3.18025634800212   -0.00854646941622   -0.00150689125939
C        -1.14825737175173   -1.20542982945829    0.00592666430329
C         0.23585323891999   -1.19308792115413    0.00940009618910
C         0.90698432267024    0.02052704501014    0.00931295945772
Cl        2.64197419789279    0.03297704026862    0.01486663693316
H         0.75718253720544    2.15780570694193    0.00627119710536
H        -1.72870228146653    2.13617351407297   -0.00060724991878
H        -1.69849231907193   -2.13227612208176    0.00577932660275
H         0.78790002012366   -2.11863835808972    0.01263871936089
