119
 energy: -172.725830913000 gnorm: 0.001902561122 xtb: 6.4.1 (1a32961)
N        -0.96510000000001   -2.11530000000000   -0.24090000000000
C        -2.24700000000000   -1.69840000000000   -0.36220000000000
C        -3.14040000000000   -2.36820000000000   -1.21200000000000
C        -2.70220000000000   -3.47560000000001   -1.93050000000000
C        -1.37780000000000   -3.89880000000000   -1.78760000000000
C        -0.54290000000000   -3.18669999999999   -0.93510000000000
H         0.49810000000000   -3.45630000000000   -0.78940000000000
H        -0.99570000000000   -4.76030000000001   -2.32769999999999
H        -4.16500000000000   -2.02890000000000   -1.31830000000000
C        -2.62130000000000   -0.50950000000000    0.44100000000001
N        -1.62600000000000    0.07330000000000    1.16020000000000
C        -1.89680000000000    1.15240000000000    1.91690000000000
C        -3.17230000000000    1.70330000000000    1.99650000000000
C        -4.20510000000001    1.11739999999997    1.26270000000000
C        -3.92610000000000    0.00250000000000    0.47820000000000
H        -4.71960000000000   -0.46420000000000   -0.09519999999999
H        -3.34630000000000    2.57509999999999    2.62069999999999
H        -1.04450000000000    1.57420000000000    2.43690000000000
Ir        0.42150000000000   -0.81650000000000    0.91330000000000
H         0.87260000000000   -2.23030000000000    1.54050000000000
B         0.50670000000000    0.41559999999999   -0.81540000000000
O         0.19500000000000   -0.04700000000001   -2.09150000000000
C         0.00650000000001    1.10040000000000   -2.95430000000000
C         0.49019999999999    0.74739999999999   -4.35780000000000
H         1.51610000000000    0.37380000000000   -4.33700000000000
H         0.44730000000000    1.62240000000001   -5.01670000000000
H        -0.14740000000001   -0.03390000000002   -4.78430000000000
C        -1.50119999999999    1.39560000000000   -2.96670000000000
H        -1.75370000000001    2.21459999999998   -3.64850000000000
H        -2.03200000000000    0.49449999999999   -3.28930000000000
H        -1.85170000000000    1.65210000000000   -1.96219999999999
C         0.84230000000000    2.20670000000000   -2.22040000000001
O         0.75200000000000    1.78259999999999   -0.83690000000000
C         2.32929999999999    2.18619999999999   -2.59899999999999
H         2.74130000000000    1.18500000000000   -2.45750000000000
H         2.48869999999999    2.51300000000000   -3.63180000000000
H         2.87200000000000    2.86270000000000   -1.93200000000000
C         0.28439999999998    3.62290000000000   -2.33660000000001
H        -0.72650000000001    3.69040000000000   -1.92910000000001
H         0.92130000000000    4.31479999999999   -1.77610000000001
H         0.26429999999999    3.94810000000000   -3.38320000000001
B         1.56300000000000    0.60960000000000    1.84840000000000
O         2.92780000000000    0.55230000000000    2.15020000000000
C         3.36330000000000    1.88660000000001    2.50260000000000
C         4.53139999999999    1.78590000000000    3.47740000000000
H         4.27910000000000    1.16090000000001    4.33690000000000
H         5.39390000000001    1.33790000000000    2.97339999999999
H         4.82389999999999    2.77870000000001    3.83820000000000
C         3.79700000000000    2.56850000000000    1.19670000000000
H         4.20020000000000    3.57090000000000    1.37679999999999
H         4.56739999999999    1.95560000000000    0.72110000000001
H         2.95239999999999    2.63260000000000    0.50540000000000
C         2.05040000000001    2.50090000000000    3.09320000000001
O         1.03750000000000    1.81620000000000    2.31910000000000
C         1.89099999999999    4.00450000000000    2.88650000000000
H         1.87290000000001    4.25440000000000    1.82410000000000
H         0.94940000000001    4.34260000000000    3.33170000000000
H         2.71079999999998    4.55150000000001    3.36629999999998
C         1.82470000000000    2.13200000000000    4.56520000000000
H         1.92610000000001    1.05330000000000    4.71320000000000
H         2.52610000000001    2.65280000000000    5.22540000000000
H         0.80630000000000    2.41580000000000    4.84900000000000
B         2.27820000000000   -1.33089999999999    0.17410000000000
O         2.89460000000000   -2.57740000000000    0.38450000000001
C         4.26930000000000   -2.48200000000000   -0.07210000000000
C         5.10900000000000   -2.05380000000000    1.14009999999999
H         4.76350000000000   -1.08740000000000    1.51750000000000
H         4.98050000000000   -2.79470000000000    1.93590000000001
H         6.17419999999999   -1.99289999999999    0.89300000000000
C         4.71949999999999   -3.84660000000000   -0.58470000000000
H         4.75279999999999   -4.56130000000000    0.24420000000001
H         5.72329999999999   -3.78370000000000   -1.02010000000000
H         4.03499999999998   -4.23600000000001   -1.34169999999999
C         4.16440000000001   -1.36219999999999   -1.16300000000000
O         3.08520000000000   -0.55030000000001   -0.65400000000000
C         5.40720000000000   -0.48870000000001   -1.31550000000000
H         6.27319999999999   -1.09009999999999   -1.61530000000001
H         5.23300000000000    0.26929999999999   -2.08590000000000
H         5.64270000000000    0.02650000000000   -0.38239999999999
C         3.71800000000002   -1.89829999999999   -2.53110000000000
H         2.82530000000000   -2.52160000000000   -2.42739999999999
H         3.46089999999999   -1.05250000000000   -3.17550000000000
H         4.50570000000002   -2.48290000000000   -3.01790000000001
H        -3.38500000000001   -4.00130000000000   -2.59310000000002
H        -5.21400000000000    1.52080000000004    1.29959999999999
C         0.23589999999999   -1.68140000000000    2.96029999999998
C        -0.98440801641175   -2.04194042846480    3.52497747903900
C         1.33638836348892   -1.79010622457221    3.83233439936387
C        -1.11217040170720   -2.39780054712392    4.87803949267107
H        -1.87618643045744   -2.05877011045292    2.91354061074069
O         2.62849613867864   -1.61497152720919    3.51725930544834
C         1.23400919117116   -2.14347961692173    5.18484965707218
C        -0.01872888743225   -2.45204839189338    5.72478028741648
H        -2.09092431301882   -2.65852668129454    5.25638278237224
C         3.37525654523416   -1.80901106238467    4.62587024453066
C         2.54991482110980   -2.14540484386040    5.68054610057390
H        -0.11753959900438   -2.75060411509930    6.75838401861086
B         4.91776882144254   -1.58237292993158    4.70480276660524
H         2.87926032556136   -2.36544317458733    6.67971304464424
O         5.75441301155260   -0.93126592776133    3.79263899657778
O         5.65888966257862   -1.95582370127074    5.84090558511987
C         7.09242251887115   -0.92383160882152    4.26074973940744
C         6.96282656784789   -1.39707208778308    5.76391118791691
C         7.90709765121352   -1.89014464946684    3.37764574662982
C         7.70589531533299    0.47409010413768    4.09051060094221
C         8.00600916718270   -2.44055647501906    6.18445613746388
C         7.01063155870278   -0.22645741290659    6.76688030207796
H         7.87068094615834   -1.52455914777125    2.34530057548494
H         7.47476204920188   -2.89576880097846    3.39727472136319
H         8.95319368601561   -1.92654621304086    3.69931588853958
H         7.72528588798502    0.72561470515737    3.02365982069028
H         8.73444476995359    0.47624686478931    4.46570755873836
H         7.12718773800208    1.24189690142715    4.61160301269988
H         9.01209774527639   -2.01937177955699    6.08719527055623
H         7.92847364355605   -3.34780379875778    5.57784581614637
H         7.83638946559225   -2.71391230505213    7.23199774436050
H         7.99755488119050    0.24771461856893    6.77302837529766
H         6.79648860291108   -0.61788769469899    7.76795976718596
H         6.24275929863231    0.51540691424450    6.52212530057315
