17
 energy: -24.900422099736 gnorm: 0.000413570528 xtb: 6.4.1 (1a32961)
C        -1.55643248263263    0.04241578297116   -0.02397204923537
C        -1.36372113418899    1.41173729439936   -0.02454797927063
C         0.01152034744249    1.64895011364058   -0.00327302456936
C         0.63214467466070    0.40626502404000    0.01085020495991
C         1.99358776879283    0.11957650856788    0.03277042140257
N         3.12389841185166   -0.10325640283830    0.05223251471825
N        -0.34394433492714   -0.55988483143317   -0.00172290382372
C        -0.11224915369496   -1.97827953978223    0.00651321992150
C        -2.82253450338013   -0.73402426825756   -0.04476502643748
H        -2.13575836662277    2.15551604223890   -0.04001865103820
H         0.51024601399925    2.59830977526540    0.00159658707254
H         0.95981585374969   -2.16501635638030    0.04037230625208
H        -0.52495833802584   -2.43714691838869   -0.89415723266857
H        -0.58074070157240   -2.43474927569354    0.88054277620197
H        -3.66802022976329   -0.05284947648365   -0.06321071269601
H        -2.90332835836549   -1.36845765212065    0.83787578735658
H        -2.86969546732298   -1.37465581974518   -0.92536623814609
