23
 energy: -32.105686258426 gnorm: 0.000616299287 xtb: 6.4.1 (1a32961)
C         1.21813677992554    1.43933426560868   -0.02050318949897
C         2.39003834503530    0.73472093358745   -0.04241332693740
C         2.39493582617539   -0.67366732310359   -0.05997914468813
C         3.69100426266613   -1.42669688678778   -0.08517360560327
C         1.19725476000726   -1.34672261630629   -0.05370042068427
C        -0.02689335487212   -0.65310789832830   -0.03064890319929
N        -1.17600939618547   -1.36387983860535   -0.02538984140399
C        -2.32111405361877   -0.73357386339759   -0.00458685996788
C        -3.56605597667105   -1.56441302945316   -0.00140591008174
C        -2.41387250421203    0.67920370995163    0.01258259607665
C        -1.26884814499031    1.42316316386918    0.00770461321047
C        -0.01871293081366    0.76803692439917   -0.01416941690246
H         1.22385160844199    2.52043817627369   -0.00689584188983
H         3.33384078574351    1.26127929336330   -0.04653827542393
H         4.53849430629498   -0.74653186783186   -0.10090643931059
H         3.73860778688909   -2.06594025493081   -0.96533581696916
H         3.77190296980124   -2.06604115772573    0.79262182106548
H         1.16554467405693   -2.42563620059855   -0.06733527770644
H        -3.30185703358444   -2.61783705222525   -0.02068759316416
H        -4.17575773235471   -1.32722299641403   -0.87229504748099
H        -4.15466063821329   -1.35435715290205    0.89073055501144
H        -3.38724838333670    1.14642643684991    0.02938176300777
H        -1.30054195618482    2.50445523470731    0.02083356254068
