  100
 energy: -148.260856087668 gnorm: 0.000259239942 xtb: 6.4.1 (1a32961)
N        -0.93281188843471   -2.02799812772064   -0.34239578198528
C        -2.18406364312919   -1.55553373045445   -0.48723698207081
C        -3.07901563328446   -2.15528567473485   -1.38237292271981
C        -2.68149935968036   -3.24604286953295   -2.12416813899355
C        -1.38468137241244   -3.72604252059205   -1.95967323613498
C        -0.55867741433154   -3.08088679245671   -1.06317743859786
H         0.45599324602310   -3.41740071788148   -0.90218975052730
H        -1.03089021357568   -4.57937821785160   -2.51512695313886
H        -4.07954544195693   -1.77265796968354   -1.49889630413801
C        -2.54058878049091   -0.40713650071711    0.33639346011007
N        -1.57966651660042    0.07114434572032    1.15451913768119
C        -1.87119855007305    1.09546533377762    1.95222662727048
C        -3.10764164677441    1.70805309950565    1.98631250864445
C        -4.10369757952324    1.24080307877022    1.13359597237788
C        -3.81180875367440    0.17878688758263    0.30456507472640
H        -4.57124426079199   -0.19648701674302   -0.36146260122593
H        -3.29086271048003    2.52627047537222    2.66371082033545
H        -1.06225876505569    1.43330855404775    2.58186623904318
Ir        0.42149999999998   -0.81649999999995    0.91329999999995
B         0.42023561823849    0.57984349254544   -0.63254710204132
O        -0.18918674333492    0.25841899562011   -1.83152706841287
C        -0.26915793157759    1.41818661647809   -2.66737506262813
C         0.02760977327904    1.02999344175704   -4.11359648699184
H         0.95810050143225    0.47581185541026   -4.17731716709404
H         0.08692495354921    1.91925800734417   -4.73576207372421
H        -0.77310101806055    0.39443340966569   -4.48416126833135
C        -1.70919199375935    1.94140082441909   -2.56746142900136
H        -1.86136382467414    2.80067354627126   -3.21366899891365
H        -2.38870253126392    1.14583193415018   -2.86714567649135
H        -1.93823764976931    2.20966001946909   -1.53791472534633
C         0.77402907196719    2.38200411257743   -2.01254143633222
O         0.85768708202515    1.88344832442988   -0.66955932540009
C         2.17286572806108    2.23376754515558   -2.62323016183249
H         2.48244286337247    1.19397852705649   -2.55090540236693
H         2.19442378928905    2.57095890302061   -3.65550021231710
H         2.87189234248672    2.82913140963171   -2.04066063276492
C         0.37383941070918    3.85587410025120   -2.00057868990035
H        -0.52616393042226    4.01638671129926   -1.41523410089621
H         1.17603085981587    4.43866276460167   -1.55438699831787
H         0.21193949277979    4.20446585888557   -3.01740083390509
B         1.58646657311750    0.63156278731981    1.86693745235310
O         2.95752314290527    0.73032568760221    1.89732603102438
C         3.34603654277586    2.00823774036849    2.42285640859259
C         4.58908143742085    1.85665348461468    3.29755041482327
H         4.44455684327533    1.09208151576112    4.05346186890459
H         5.43010825560464    1.56262649259849    2.67489262542544
H         4.82382530441376    2.80309102559491    3.77711894329653
C         3.67091374866053    2.89306698331355    1.21342354999009
H         3.96612344172474    3.89308399046860    1.51686338657778
H         4.48657068158918    2.43541035630864    0.65826345211568
H         2.80233667163619    2.92944442555897    0.56071091867598
C         2.05698788720304    2.47180318614243    3.18149465587921
O         1.03093813783584    1.67686911570370    2.57073237827583
C         1.71382345834127    3.95139303363576    3.01974023113816
H         1.50092277968387    4.18272119198408    1.98146190034244
H         0.82840364813168    4.17858461759976    3.60839551766679
H         2.53650286995443    4.56727141515317    3.37281834581380
C         2.07713693196329    2.11568609320171    4.67343183556948
H         2.27718262326639    1.05529064162125    4.79942939082745
H         2.82036471965953    2.70206881607843    5.20485658663045
H         1.09620118340394    2.32175590843006    5.09535724937091
B         2.27819999999946   -1.33090000000035    0.17410000000054
O         3.07864713756977   -2.32575971145481    0.69816230818763
C         4.37029424646406   -2.30658309102415    0.07683538930949
C         5.31494851945210   -1.60388378278563    1.05774291051977
H         4.90641583374967   -0.62676320142920    1.29905820637309
H         5.35294408534866   -2.18652618126508    1.97475927718035
H         6.31797406038565   -1.51434825380084    0.65243126981665
C         4.84901447384991   -3.74033183897237   -0.15020863428374
H         4.97702160942808   -4.22302591572607    0.81507280843939
H         5.80155198346141   -3.73778584449890   -0.67255811748240
H         4.12517674837412   -4.31419886844662   -0.71910450970488
C         4.11218683330841   -1.47644634316714   -1.22907377907520
O         2.88466798576172   -0.79053837124906   -0.93572031622499
C         5.19439701562138   -0.45064194889240   -1.55999056538986
H         6.15547837488212   -0.94235171174127   -1.68210426739681
H         4.93661998534233    0.05311915810478   -2.48813711977671
H         5.25911817472890    0.29585551017726   -0.77620034009343
C         3.85537602968666   -2.35295462384954   -2.46259436088349
H         3.05882900365228   -3.06322223872807   -2.25848382800643
H         3.53189220496669   -1.71450027275124   -3.28123744676285
H         4.75519746251354   -2.88224604401166   -2.76102685032565
H        -3.36181741239342   -3.71645443027804   -2.81777538868656
H        -5.08327095742498    1.69450752233893    1.12289616045609
C         0.23589999999964   -1.68139999999954    2.96029999999952
C        -1.04578949967818   -2.01478125098649    3.37321085078129
C         1.15746041434340   -1.56558242868553    3.99734207827455
C        -1.42692323158809   -2.13416909811565    4.72446241666138
O        -2.16431085170449   -2.26398154319402    2.62270520689356
C         0.80290911095790   -1.68980608672207    5.34035502525354
H         2.18629255540406   -1.36725710899630    3.73888947234620
N        -2.77434990819436   -2.43631609919516    4.76208677458497
C        -0.49259286688687   -1.96434491472900    5.73638896668920
C        -3.14459656038157   -2.50031121931609    3.52852382230545
H         1.56686076572278   -1.57074683797351    6.09502062097373
H        -0.77416245935311   -2.05552195980052    6.77235858064143
C        -4.50860282049348   -2.80242289665490    3.03765658792029
H        -5.19369295493772   -2.80834318320872    3.87879117759004
H        -4.52006279773791   -3.77668350241991    2.55131587700286
H        -4.81013748718194   -2.05216875207866    2.30892607451668
