  100
 energy: -148.258882217970 gnorm: 0.000235627712 xtb: 6.4.1 (1a32961)
N        -0.91685281137395   -2.04394737971244   -0.31749891954242
C        -2.19139632142477   -1.62628666068191   -0.39913034925280
C        -3.12366064461696   -2.31452792369766   -1.18551993619137
C        -2.73411256559447   -3.42763705103486   -1.89795384373676
C        -1.40751742233861   -3.84112928824591   -1.81148921416806
C        -0.54940062273418   -3.11775969100652   -1.00955894512286
H         0.48755270650736   -3.40574856811114   -0.90675395611452
H        -1.05642903456144   -4.70622325113108   -2.35048043869307
H        -4.14867351207481   -1.98618596329114   -1.23556149987519
C        -2.53552420146387   -0.43935627657973    0.37310056450234
N        -1.56793134942516    0.07053304000517    1.16148776446217
C        -1.84943587178540    1.13367659394084    1.90971815905652
C        -3.07937125318192    1.76051129770747    1.91404988582623
C        -4.07862710939934    1.26666271269574    1.08098177018563
C        -3.79807029416845    0.16084401446143    0.30729635029887
H        -4.55743221132915   -0.23157695903267   -0.34846518704541
H        -3.25286158322928    2.61424021934890    2.54952387021703
H        -1.03693449753101    1.49539741790034    2.52129528915377
Ir        0.42150000000008   -0.81649999999999    0.91330000000002
B         0.41144428457906    0.59033574399741   -0.62390469841615
O        -0.22040608195622    0.28550515526117   -1.81555079537059
C        -0.29602611904429    1.45110567676382   -2.64322800572519
C        -0.02963792361605    1.06724134534572   -4.09661761088177
H         0.89194745380020    0.50084718102808   -4.17933606980445
H         0.03134552269894    1.95923110685729   -4.71481722265143
H        -0.84492070662948    0.44448906489512   -4.45696626725180
C        -1.72483302087955    1.99866243846936   -2.51553567614154
H        -1.87243169111259    2.86453655547605   -3.15405860048144
H        -2.42381544364768    1.21763063308055   -2.80789023799979
H        -1.93133681913075    2.26438632683561   -1.48058991182277
C         0.77318451471560    2.39427621505103   -2.00053941268690
O         0.86782506399718    1.88861555727721   -0.66135435421653
C         2.16041470255170    2.22484513904241   -2.63225214435360
H         2.45292279320323    1.17960445734133   -2.56831947337271
H         2.17333412172741    2.56622179571001   -3.66333106665900
H         2.87782676973601    2.80524829348670   -2.05694590549536
C         0.39890753033625    3.87487180785678   -1.97712550315739
H        -0.48970030083745    4.04802627522306   -1.37826504238749
H         1.21748503334186    4.44170168768292   -1.54020628411991
H         0.22848184063306    4.23060975687833   -2.99011797539116
B         1.58900547639550    0.63203871108035    1.87299458686263
O         2.96268486042627    0.72361174505429    1.90080679789568
C         3.36127539360324    2.00086452510698    2.41818277813138
C         4.60873045469533    1.84720254829055    3.28664153057845
H         4.46492704211431    1.08736069041986    4.04749350296385
H         5.44448934648840    1.54540003105196    2.66058209087204
H         4.85150236616585    2.79494347522579    3.75977033869771
C         3.68432755159753    2.87929697472491    1.20346290235549
H         3.98625113097959    3.87914060703851    1.50107763255584
H         4.49466653120457    2.41511228488681    0.64597012062665
H         2.81252142568024    2.91658469648456    0.55518116597371
C         2.07921386415015    2.47478405015255    3.18153973464398
O         1.04578820574050    1.68450022283005    2.57916450735158
C         1.74451045942017    3.95615328596712    3.01701712646847
H         1.52899832865616    4.18543158699497    1.97887786081252
H         0.86263569134039    4.19040085110720    3.60831533083258
H         2.57233568261978    4.56809281344396    3.36509405887141
C         2.10527199614556    2.12401730086303    4.67490729290609
H         2.30007542354004    1.06293663434417    4.80315572276837
H         2.85453691199221    2.70794229517633    5.20068593664600
H         1.12741993365562    2.33710773071750    5.10053030721352
B         2.27820000000107   -1.33089999999997    0.17409999999986
O         3.07954243261670   -2.32831654903545    0.69531750657205
C         4.37044055888467   -2.31045351694385    0.07388985984613
C         5.31896117546049   -1.61876836947823    1.05913445735540
H         4.91350615938471   -0.64252438905692    1.30890741388867
H         5.35647364565596   -2.20898722349516    1.97136338759975
H         6.32177639181485   -1.52879107484788    0.65327591197205
C         4.84263710421073   -3.74515970053367   -0.16221124738482
H         4.96588934902506   -4.23514748863385    0.80004508772862
H         5.79633441581650   -3.74422397550145   -0.68248024772528
H         4.11683331079543   -4.31123467682218   -0.73635075707959
C         4.11597082186665   -1.47111693588129   -1.22713577433596
O         2.88748542201748   -0.78835435015699   -0.93388410057883
C         5.19816300398574   -0.44144839302223   -1.54683737354706
H         6.16006679036013   -0.93072549759461   -1.67250976492803
H         4.94052877575901    0.07108074451225   -2.47019004221278
H         5.26073865555752    0.29753753988987   -0.75581880576547
C         3.86512169103165   -2.33850039010066   -2.46842308773731
H         3.06693303665353   -3.04958556139848   -2.27386408379214
H         3.54626054464752   -1.69354230673184   -3.28372057503132
H         4.76617975323663   -2.86608877425384   -2.76628301814756
H        -3.44314180393142   -3.96679283717756   -2.50785387419832
H        -5.05040779692014    1.73545346436658    1.04116404217770
C         0.23590000000092   -1.68139999999886    2.96030000000090
C        -1.04919281516538   -2.04666989018513    3.36324676690824
C         1.16210695301477   -1.55001080362761    3.99031504197848
C        -1.38556965916862   -2.16805699920961    4.72630733712212
N        -2.18785350308818   -2.33828899806605    2.63226198387265
C         0.82178804051034   -1.67821264638647    5.33466250016105
H         2.18650177754865   -1.33493085761287    3.72681769361076
C        -0.46841335079775   -1.98060380480523    5.74083191253708
O        -2.70620336018903   -2.50982437388939    4.79794308766757
C        -3.10565275617581   -2.59375907829282    3.49515711866568
H         1.58497278205721   -1.54437075366411    6.08715918792790
H        -0.74278046679819   -2.07808276408812    6.77857028589695
C        -4.51018215388002   -2.96239812748970    3.20867384701123
H        -4.67415444694172   -2.90999375497636    2.13755811150799
H        -5.18519338362147   -2.28293885514400    3.72575710532848
H        -4.70799510176720   -3.97285181439129    3.56314122754485
