  100
 energy: -148.255786266697 gnorm: 0.000194304796 xtb: 6.4.1 (1a32961)
N        -0.90807439763802   -2.02123129564747   -0.40451015139976
C        -2.15692848843132   -1.54505542317054   -0.56188408246154
C        -2.98894368691844   -2.02719467258330   -1.57964851816226
C        -2.53171508762056   -3.00919750557797   -2.43113776954829
C        -1.24158852878350   -3.50035326161309   -2.24951976279164
C        -0.47837377683188   -2.97188519056248   -1.22935615294211
H         0.52933654534081   -3.31962038918136   -1.05126897144515
H        -0.84392229216046   -4.27094518397748   -2.88966683152598
H        -3.98064409341593   -1.62742200897313   -1.71377455702144
C        -2.57068287729315   -0.49679055895588    0.36442690291215
N        -1.61957951667432   -0.00890429018158    1.18740869098650
C        -1.94752774332325    0.95577983761996    2.04227553216815
C        -3.21806021667088    1.48623142798537    2.14174541960605
C        -4.21347847677544    0.98725734296648    1.30606283532258
C        -3.88194889375052   -0.00765725933492    0.41152670435015
H        -4.64080699740022   -0.41239963884189   -0.23746422006537
H        -3.42922518492862    2.26220742624447    2.85968370892570
H        -1.14016686984835    1.31245668065639    2.66313832919313
Ir        0.42150000000017   -0.81650000000005    0.91330000000008
B         0.36314373176589    0.62313442884663   -0.59836312608177
O        -0.32908312460172    0.36271541869330   -1.76955814777157
C        -0.47021155938626    1.56525538537156   -2.53286020256373
C        -0.29822868515347    1.25762370897142   -4.01806053464857
H         0.61756671374250    0.70269099106458   -4.19206155485033
H        -0.28147711775428    2.18098694512236   -4.59119888033997
H        -1.13395488156424    0.64916932058516   -4.35555139810227
C        -1.89287368773536    2.08822447400575   -2.28492404961401
H        -2.09142706056800    2.98147850373903   -2.86967476563179
H        -2.60262685244447    1.31332162600557   -2.56825024079981
H        -2.03251214095290    2.30207258169390   -1.22698616371568
C         0.62908348795292    2.48948001237492   -1.91516739605856
O         0.80811849559447    1.92516489020706   -0.60899452602332
C         1.97592339245901    2.36232494427752   -2.63746317232040
H         2.27456685462576    1.31682326083846   -2.65204116314095
H         1.92503207924527    2.76062945076844   -3.64668476906383
H         2.72546742885718    2.91359771564327   -2.07467866529438
C         0.24520701044209    3.96339372035347   -1.80141207586088
H        -0.59975017286897    4.09944493501689   -1.13352281975422
H         1.08793318467233    4.52114009084858   -1.40014482609919
H        -0.00104370702000    4.36023458384983   -2.78304326607327
B         1.54935182603086    0.66588109881144    1.85460769567781
O         2.91109626386470    0.84461917232680    1.84675191648363
C         3.24393531329105    2.12205023913182    2.41113949906420
C         4.50763611396398    2.00103872182059    3.26114297720731
H         4.41234249905203    1.20718463495362    3.99434223540272
H         5.35015884570166    1.76650303021954    2.61568338197637
H         4.70668163986871    2.94182238339174    3.76715813975475
C         3.50760538276933    3.06403653792221    1.23047090027346
H         3.74949797015525    4.06786970712168    1.56652262429961
H         4.34281371356363    2.67240673719385    0.65428617053558
H         2.63239027206356    3.07415156030117    0.58616371202157
C         1.94689688911174    2.49536707300764    3.20727127949073
O         0.95320992759559    1.65674136731771    2.60209235655178
C         1.51549587775895    3.95587607919561    3.08533617692945
H         1.27252951303778    4.19817577008597    2.05624297422698
H         0.62773605944874    4.11591689770786    3.69237816041696
H         2.30523502856370    4.61188731733196    3.44132037783934
C         2.02017475934408    2.11296253463478    4.69110750462789
H         2.27647343477383    1.06238252082848    4.79257405175814
H         2.74492327080466    2.72615941028842    5.21766206196861
H         1.04047692367357    2.26063888730072    5.13962435751202
B         2.27819999999900   -1.33089999999844    0.17410000000089
O         3.14402248939322   -2.23893939744180    0.74339227078742
C         4.42439881855621   -2.18408123605340    0.10154593981027
C         5.35253548385381   -1.41539601428574    1.04823178286264
H         4.90195795721463   -0.45453193337725    1.27885865074946
H         5.43839917375096   -1.97653359512370    1.97530445115683
H         6.34154456184072   -1.28543173405114    0.62027639774674
C         4.95798272259931   -3.60503351237370   -0.08405652552839
H         5.10331041690355   -4.05299133714352    0.89536013392741
H         5.91004900554624   -3.58257171607757   -0.60653109007402
H         4.25646257538813   -4.22304947096932   -0.63425215064884
C         4.11787188539866   -1.40913874847997   -1.23099323664807
O         2.83214484139692   -0.82285875399064   -0.97704578440094
C         5.10760223799406   -0.29307235581964   -1.56363609175743
H         6.11169919572021   -0.69346073626417   -1.67101276787572
H         4.81277320497977    0.17385345387422   -2.50001164860732
H         5.09186054069035    0.46513294570985   -0.78859073052702
C         3.96905646596673   -2.32559224478153   -2.45278793064619
H         3.22790953922276   -3.09588576336434   -2.25964514937344
H         3.62141439146402   -1.72945770975890   -3.29302629259834
H         4.91773179961669   -2.78457780696151   -2.71401858019913
H        -3.16086184455092   -3.38591738847564   -3.22319379403413
H        -5.22267264276222    1.36721245014707    1.35690324646939
C         0.23590000000356   -1.68139999999904    2.96029999999735
C        -1.04161825188448   -2.10361189629472    3.31658647652765
C         1.21098874737769   -1.50647631378284    3.95590277308732
C        -1.31518349030362   -2.23311224170193    4.66455145497009
H        -1.80490413844222   -2.33118112716966    2.58813366152004
C         0.94058108084156   -1.64325534319741    5.30255143517685
H         2.21299363449448   -1.26139009957914    3.63864552791662
C        -0.35306386023149   -2.00084229107479    5.66284808668603
O        -2.47212198662440   -2.60388691077504    5.29210224077538
H         1.69679932087719   -1.49739339151108    6.05743936197416
N        -0.94782553745254   -2.23296504690525    6.88800686792185
C        -2.16047486428305   -2.57623652880675    6.62228780754609
C        -3.20981975161897   -2.93451343963252    7.60186316360966
H        -3.55472283511771   -3.95090255055872    7.41920005930025
H        -4.06049168059260   -2.26333775743349    7.49665700567171
H        -2.79723038050360   -2.85785852733670    8.60209504155967
