  100
 energy: -151.848563787114 gnorm: 0.000442019438 xtb: 6.4.1 (1a32961)
N        -0.94826183382225   -2.00237000400215   -0.37083814875586
C        -2.18415809600839   -1.49542789830920   -0.51890563040019
C        -3.04482683731616   -1.97267073945967   -1.51386811450784
C        -2.63129163547400   -2.99073572891807   -2.34633402636626
C        -1.35635957550944   -3.51912588103233   -2.16885744558279
C        -0.56009580452036   -2.98651871309516   -1.17549819538739
H         0.44023889951144   -3.35896399054277   -1.00544314254330
H        -0.99248829260433   -4.31893524555242   -2.79292710243771
H        -4.02346668782700   -1.54183199472119   -1.64722505100572
C        -2.56010146406966   -0.42550248752494    0.40034525181904
N        -1.58385645214184    0.06536436161508    1.18913147261873
C        -1.88311171626236    1.03365677686491    2.05019980547587
C        -3.15066662372054    1.56392915921200    2.19099155528753
C        -4.17144011685590    1.06329408995739    1.38949314697083
C        -3.86797020865285    0.06486473554925    0.48733324262508
H        -4.64733226556602   -0.34376885868606   -0.13450942317905
H        -3.33746203494324    2.34029651779254    2.91498310882321
H        -1.05668502738590    1.39449380567105    2.64345292045976
Ir        0.42150000000000   -0.81650000000004    0.91329999999997
B         0.43659298799038    0.56424906049501   -0.64634082767898
O        -0.16370758438898    0.24542949505253   -1.84956279299578
C        -0.21642335755048    1.40156008860242   -2.69371771204523
C         0.10629302242480    0.99935401457410   -4.13040676110505
H         1.03970461388921    0.44842146551457   -4.17339700009233
H         0.17172359989607    1.88206316589240   -4.76106793399842
H        -0.68592520840896    0.35624533401177   -4.50605252823583
C        -1.65393464457876    1.93684002431326   -2.62872393924298
H        -1.78150546386215    2.79889476033535   -3.27645814878541
H        -2.33276094344949    1.14884456011935   -2.94882401311738
H        -1.90645234686151    2.20519602174080   -1.60487538510920
C         0.82219213820353    2.36133276701413   -2.02408870766265
O         0.88748506233801    1.86144196449324   -0.67981235896843
C         2.22832668988424    2.20966746321127   -2.61634306667515
H         2.53692848107070    1.17040426314320   -2.53378131757667
H         2.26226886891118    2.54042223790547   -3.65022098965683
H         2.92037668685601    2.80916988184118   -2.02977173032757
C         0.42686852225143    3.83658013272179   -2.01411554440702
H        -0.48060061368008    3.99926133399081   -1.44097887643098
H         1.22487179827335    4.41531342091064   -1.55532594459890
H         0.28084414789209    4.18843749142245   -3.03208694886743
B         1.59436375572362    0.63233579209837    1.85876465741831
O         2.96154108901312    0.73771259253207    1.88426888113715
C         3.34810904946100    2.01616079454659    2.41335856965654
C         4.58179090158806    1.86097646115820    3.30060941722187
H         4.42705313448781    1.10623928236456    4.06455437574001
H         5.42552283873603    1.55327921948330    2.68836615457927
H         4.82104831813883    2.80950942179505    3.77337918498356
C         3.68982229289510    2.89604373206640    1.20527290084211
H         3.97816443811923    3.89759764349994    1.50961022178116
H         4.51601704578168    2.43842271239768    0.66585286365165
H         2.83194042794880    2.92854071640245    0.53846805541472
C         2.05277667268582    2.48619466316247    3.15986430016904
O         1.03146004572630    1.66907216399870    2.56702120889527
C         1.69428147374545    3.95745096362735    2.95919195105255
H         1.48173347358001    4.15907505475522    1.91463264351059
H         0.80467733679024    4.18967422103315    3.53962912373146
H         2.50866809700503    4.59118316582498    3.29889951230923
C         2.07296408057380    2.17254070951555    4.66063486305838
H         2.29697676182195    1.12250993194846    4.82389913971546
H         2.80431208274668    2.78479467105387    5.17871497104708
H         1.08807049942337    2.37412329774646    5.07616369407076
B         2.27820000000025   -1.33089999999923    0.17410000000005
O         3.08634807949156   -2.29534896595206    0.73945366978959
C         4.37629817351710   -2.29970277595230    0.11300265576775
C         5.32809106664473   -1.57084487319284    1.06730295259653
H         4.92397425315302   -0.58636889242206    1.28426815997822
H         5.37298518139121   -2.12684551427633    2.00051375225013
H         6.32844675436659   -1.49448085350328    0.65316136193779
C         4.84775958039792   -3.74268214580385   -0.06757180224838
H         4.97510958074999   -4.19321723744338    0.91328527859299
H         5.79968753118378   -3.76257436167739   -0.59034538845215
H         4.12034792467506   -4.33219654591475   -0.61557536202728
C         4.11587511471669   -1.51228828555367   -1.21974049654866
O         2.87832980834969   -0.83038098839697   -0.95563756033286
C         5.18829543883648   -0.48403589840587   -1.57438949941493
H         6.15586410102681   -0.96761834247928   -1.67471298025528
H         4.93205055267339   -0.01211930757697   -2.51954672191414
H         5.23887125006495    0.28675664939655   -0.81333015243536
C         3.87793650519851   -2.42729756218630   -2.42856032883386
H         3.08667634571626   -3.13947290245391   -2.21146357621452
H         3.55755799270257   -1.81664614164440   -3.26926196738844
H         4.78562191711894   -2.95652662552723   -2.70188041232938
H        -3.28291419572326   -3.36598043600256   -3.12065340325299
H        -5.17894027990755    1.44150751489253    1.47403766485022
C         0.23589999999925   -1.68140000000035    2.96029999999880
C        -1.03652684042754   -2.01722209780250    3.40592925678268
C         1.18282786999173   -1.56234703829454    3.97442581079780
C        -1.38928275429849   -2.13820116556311    4.76508801407972
O        -2.17021366237779   -2.26243333827395    2.68266790321109
C         0.83729203326169   -1.69244849186737    5.31535847696011
H         2.20703921076717   -1.35879621549573    3.70309325826829
N        -2.73305285578385   -2.43725471376919    4.83403033122516
C        -0.43892553903939   -1.96948802901219    5.76307222446332
C        -3.13116865087264   -2.49901204690728    3.60784140223957
Br        2.21772256952188   -1.47631311775926    6.61705712984083
H        -0.68833215980749   -2.05911262521927    6.80666716062485
C        -4.50539926776552   -2.79920573722001    3.15004241320099
H        -5.17473675221889   -2.77583324226149    4.00346427568533
H        -4.53514896535486   -3.78670194715958    2.69177639756244
H        -4.81139260142333   -2.06642622026969    2.40594353914566
