  101
 energy: -147.626281657551 gnorm: 0.000216275239 xtb: 6.4.1 (1a32961)
N        -0.88578808827894   -2.00146801327087   -0.42495933608278
C        -2.14091722518924   -1.53628226330665   -0.57348331822262
C        -2.96984806266571   -2.01382892986249   -1.59634047906770
C        -2.50520709286010   -2.97919998622524   -2.46176843344588
C        -1.20908196455733   -3.45957742180481   -2.28907022829383
C        -0.44951162871098   -2.93711021094042   -1.26405801412040
H         0.56230186112610   -3.27706198685175   -1.09364793287995
H        -0.80500761119918   -4.21777997000694   -2.94015921132212
H        -3.96595312601312   -1.62216829063884   -1.72228272766774
C        -2.56180633315168   -0.50467865287936    0.36566177423056
N        -1.61227434842920   -0.01958682882970    1.19284746486175
C        -1.94765034554822    0.93136910931625    2.06048820812160
C        -3.22130467846114    1.45067484463319    2.16856207201351
C        -4.21492922542061    0.95397003393664    1.32876654373522
C        -3.87702815966458   -0.02630124059663    0.42155362575609
H        -4.63360803201954   -0.43011075158779   -0.23082062174994
H        -3.43750315711455    2.21544162508805    2.89701893286311
H        -1.14270877445086    1.28622348374236    2.68527485006309
Ir        0.42150000000000   -0.81649999999989    0.91329999999987
B         0.36700038945148    0.64722900389631   -0.57761105886549
O        -0.33454884326017    0.40995347293434   -1.74917700553176
C        -0.47904465208255    1.62590325729586   -2.48870994318872
C        -0.32750395467549    1.34575023918395   -3.98166253846718
H         0.58483034205276    0.79283561527085   -4.17919825444877
H        -0.31697135717280    2.27989579524530   -4.53743968911424
H        -1.16877423519598    0.74468680962891   -4.31873741841529
C        -1.89607518431297    2.15083608078140   -2.21319871347055
H        -2.09929159067332    3.05488693360737   -2.77967817647266
H        -2.61284085871713    1.38347191809157   -2.49964664392006
H        -2.02036310724664    2.34638296451860   -1.14982897273591
C         0.63177306632923    2.53369047735205   -1.86820235303662
O         0.82134973196440    1.94779350298004   -0.57379937738163
C         1.97002127482892    2.41103942472759   -2.60734263725550
H         2.26092981696899    1.36388419002690   -2.64521514294512
H         1.91126219147341    2.82873440427402   -3.60833206958708
H         2.72983199646923    2.94605890812340   -2.04234686301915
C         0.25703635693586    4.00767314468488   -1.72684331242221
H        -0.57579778936402    4.13675504785850   -1.04243318158015
H         1.10900913810147    4.55604198037137   -1.33201291788599
H        -0.00433883470010    4.41991309484978   -2.69821987311697
B         1.54119159696152    0.66083915437833    1.87177448315148
O         2.90711978357067    0.82507897691515    1.88411890963954
C         3.24838139745592    2.09656875602931    2.45388514111092
C         4.49584135685732    1.95580586852046    3.32526798127415
H         4.37503229936299    1.16213844269629    4.05490112151178
H         5.34496475078242    1.70754231038651    2.69378535742384
H         4.70170925769589    2.89272118445039    3.83589516546107
C         3.54650564490124    3.03544016302828    1.27874885224507
H         3.79938220498141    4.03518964959066    1.61922486106570
H         4.38418292853781    2.63046733420989    0.71527856058234
H         2.68187850134262    3.06007245955850    0.62062989375493
C         1.94382396023113    2.48859232629907    3.22830656727936
O         0.94918627237478    1.66306508972286    2.61001483593517
C         1.53470502259186    3.95492709726702    3.09819205095157
H         1.31544268786119    4.19953348164389    2.06439187086889
H         0.63664605018779    4.12691626202712    3.68657913874949
H         2.32595266069209    4.60080530517307    3.46933473309632
C         1.98761051298763    2.10678597925947    4.71383062459211
H         2.22379859274251    1.05152948793140    4.81686471555153
H         2.71464690370292    2.70759356356871    5.25158821816390
H         1.00285366448215    2.27217299009092    5.14483831326233
B         2.27819999999952   -1.33089999999820    0.17409999999988
O         3.16215280832227   -2.23105741933251    0.73255558029017
C         4.42934412710395   -2.16879913042242    0.06675941661235
C         5.36204745286617   -1.36373330566923    0.97840740486213
H         4.89934339534528   -0.40513860899929    1.19458924986319
H         5.47304695666157   -1.90115166388451    1.91684318047199
H         6.34113502303493   -1.22824608543349    0.52954793095664
C         4.98618008148523   -3.58265628135260   -0.10319588953290
H         5.17064944255822   -4.00604021247798    0.88051959463601
H         5.92122371217900   -3.55210728309912   -0.65558735087136
H         4.28115569992483   -4.22649750799470   -0.61816440797202
C         4.08518977039433   -1.42572664103310   -1.27312671254562
O         2.81174030665001   -0.82780100701640   -0.99192480746309
C         5.07178354598060   -0.32737917803890   -1.66802821882760
H         6.06956175904824   -0.73914744302568   -1.79197440263115
H         4.75363676494461    0.11309526682208   -2.60963240913935
H         5.08487680700540    0.45464292080253   -0.91681240804318
C         3.89082516559143   -2.37484280698012   -2.46361827307056
H         3.16023172586693   -3.14093341950201   -2.21951234186323
H         3.50707820777493   -1.80225511908254   -3.30458512591660
H         4.82946288082861   -2.83923565979777   -2.75036884058852
H        -3.13196632892477   -3.35191399423168   -3.25772380964839
H        -5.22724568689236    1.32439788377582    1.38726785305622
C         0.23590000000201   -1.68139999999990    2.96029999999998
C        -1.03597606735769   -2.09136388994187    3.32889387692055
C         1.22820332271130   -1.51786120658913    3.94113163534177
C        -1.32474480157464   -2.22959416602805    4.68355176829895
H        -1.80631842655756   -2.31413087315113    2.60562462128417
C         0.96816192057191   -1.66041434701688    5.29020615542291
H         2.22982397454512   -1.28263999659943    3.61533053606866
C        -0.32399786748735   -2.00414279674048    5.65393782100437
N        -2.49469472591580   -2.59612160793575    5.31261536537934
H         1.74317993953827   -1.52697083224599    6.03134078785708
N        -0.93488102776516   -2.24367355950153    6.86162048272458
C        -2.22946102185949   -2.59357440504546    6.58815074210371
H        -0.51066937051667   -2.17869444690640    7.77136166899032
C        -3.19297978776910   -2.93521189379664    7.66348495062215
H        -4.15351556743626   -3.16802081897954    7.21531719480928
H        -3.30879965286395   -2.09852018339536    8.35088517876383
H        -2.84063403555350   -3.79922826192595    8.22540301172041
