  101
 energy: -151.680878132466 gnorm: 0.000520927212 xtb: 6.4.1 (1a32961)
N        -0.87548312186934   -1.97057844201450   -0.47340371627134
C        -2.10566574527520   -1.45594661561986   -0.65432992489721
C        -2.91261740476457   -1.87699649351818   -1.71725585676301
C        -2.45489178835202   -2.84566747837774   -2.58380680809874
C        -1.18760172843924   -3.38183583262292   -2.37381133841018
C        -0.44414612248561   -2.90544420711745   -1.31451849833416
H         0.54721103729373   -3.28765801998781   -1.11500105858244
H        -0.79147513374190   -4.14682773719078   -3.02179284793458
H        -3.88560532820785   -1.44060527274132   -1.87353463231472
C        -2.53309473160489   -0.44535725602078    0.30733689755467
N        -1.60141722279369   -0.00251724176657    1.17683159250128
C        -1.95469054738848    0.90037504573011    2.08729982959205
C        -3.22992627830798    1.41771870073337    2.19368469355561
C        -4.20197558737089    0.97367900648080    1.30243179755133
C        -3.84563095819722    0.03793715168484    0.35488646751140
H        -4.58865514697137   -0.33217704275853   -0.33199894057894
H        -3.46114297384374    2.14109207963780    2.95870718292808
H        -1.16486010055093    1.21947375006703    2.75017193144357
Ir        0.42150000000003   -0.81650000000080    0.91329999999977
B         0.42439623084169    0.63716895407983   -0.58968206473523
O        -0.28894868016720    0.42857589024555   -1.75868016578423
C        -0.36810505234653    1.64598577137795   -2.50765763815023
C        -0.23000101769423    1.34640848243258   -3.99789721309308
H         0.65458204419782    0.74878099958175   -4.19111289192387
H        -0.17470420117003    2.27447882416819   -4.56107842991670
H        -1.09933318610061    0.78384627014243   -4.33028131290647
C        -1.75622401767135    2.24529774684050   -2.23857719720636
H        -1.91181353737513    3.15347877113222   -2.81348050438811
H        -2.51097296128954    1.51320394915655   -2.51970799061739
H        -1.87188958331420    2.45633033945005   -1.17737729193230
C         0.78882428643587    2.49862422046038   -1.89218704682246
O         0.95151032531958    1.90752647357465   -0.59568898292297
C         2.11687742735009    2.30725641186796   -2.63441507599072
H         2.35903194972624    1.24764216126066   -2.66203373331825
H         2.07313026979548    2.71686796363096   -3.63938845152304
H         2.90300065818099    2.81305289602332   -2.07879855862610
C         0.48942718667610    3.98981911757356   -1.75198843038318
H        -0.33412477130265    4.16196128409068   -1.06577843119665
H         1.36892946684270    4.49490181905773   -1.35937914592331
H         0.24738358258399    4.41377579315714   -2.72325509238647
B         1.53244327257213    0.67829437044205    1.84921709076448
O         2.89539917101446    0.82145505190179    1.90038651573707
C         3.24534003071458    2.09475095884749    2.46212767358110
C         4.41912320072812    1.92006557790349    3.42531462443183
H         4.19717110494687    1.17156217151006    4.17867637464537
H         5.28978225094547    1.58779439183507    2.86552905110807
H         4.65219862746616    2.86583088909037    3.90675090851881
C         3.67424245631984    2.98306068292803    1.28807884617851
H         3.92621544923270    3.98694480277455    1.61620656200607
H         4.54671433481881    2.53639589750551    0.81668474825109
H         2.87287976067819    3.00886394146087    0.55473105370024
C         1.90583236541171    2.56354352008208    3.13299554402854
O         0.92605557320268    1.70975655163041    2.52664709243488
C         1.52812716803575    4.01902173249355    2.85768158049346
H         1.37759356442004    4.17684700686248    1.79487966819222
H         0.59672422230744    4.24691037551697    3.37008426087263
H         2.30260029677634    4.68676385728272    3.22447206670654
C         1.85642766627924    2.30600940734617    4.64467142281535
H         2.02990434826562    1.25358863361141    4.85347911343121
H         2.58659573009453    2.91475792804155    5.16870067827702
H         0.86274207577808    2.55816630829457    5.00859794746183
B         2.27820000000302   -1.33089999999384    0.17409999998528
O         3.15757985195815   -2.21402026817401    0.76421819178993
C         4.42938745270886   -2.16997600982913    0.10482278645136
C         5.35286342612463   -1.33028452095074    0.99392864190481
H         4.88843459619940   -0.36434890715101    1.16923360413685
H         5.45333933027148   -1.83042920358776    1.95383587184111
H         6.33640577495332   -1.21215829263666    0.54992447429088
C         4.99231104287051   -3.58653790872977   -0.01256425145139
H         5.17163346805676   -3.97407387072115    0.98672452170882
H         5.93098441006705   -3.57134522317437   -0.55939576364665
H         4.29349596707854   -4.25114636070769   -0.50935778484908
C         4.08960277225135   -1.47488712500001   -1.26114211529303
O         2.81610139943216   -0.86303089628466   -1.00338710434029
C         5.08164995643787   -0.39611874842111   -1.69320320887070
H         6.07931101067704   -0.81558468118362   -1.78865420139276
H         4.77568401870606    0.00427761644532   -2.65642155618889
H         5.08979970551476    0.41701725655787   -0.97568120594569
C         3.89257821859816   -2.46656306792088   -2.41566529119617
H         3.16211462258743   -3.22297278631656   -2.14229911309473
H         3.50835239671873   -1.92560195047668   -3.27711713890029
H         4.83081739055463   -2.94167961771988   -2.68541212412628
H        -3.06651854887942   -3.17842447332202   -3.40870030591087
H        -5.21382791344186    1.34610195641212    1.35391838217299
C         0.23590000000062   -1.68139999999995    2.96029999999299
C        -0.95705889841605   -2.21238444247915    3.42711101461699
C         1.21094999518323   -1.38263455949638    3.93444095130085
Cl       -2.17530148375496   -2.83499997689516    2.34774247380859
C        -1.19458617899497   -2.30327767218314    4.79791242284845
N         1.05005102097317   -1.46147147700715    5.24257399675040
H         2.19396548898694   -1.07648973744182    3.60796730744366
C        -0.13767682208229   -1.88851263658787    5.65044942719592
C        -2.24503319274728   -2.74406394536212    5.64606663157426
N        -0.54568122330281   -2.06835062919383    6.93396209931010
C        -1.81807590953038   -2.58590105323111    6.93526053245863
H        -3.19399358787958   -3.12673637217645    5.32694674567689
H         0.00932952129065   -1.86687461408812    7.74873897964912
C        -2.51154288396439   -2.89292645206860    8.21358083880495
H        -3.51245231515393   -3.26139270023462    8.01086180636996
H        -2.58255640189625   -2.00110330046652    8.83486212615759
H        -1.96432560525285   -3.65313095378832    8.77017882845188
