  104
 energy: -155.495836095599 gnorm: 0.000814557400 xtb: 6.4.1 (1a32961)
N        -0.90469621606413   -1.98917757569004   -0.40544810938000
C        -2.14716743310645   -1.49765223599793   -0.56257051113045
C        -2.99685836183993   -1.99413668754811   -1.55863822997978
C        -2.56687230313610   -3.00882425461800   -2.38546545055603
C        -1.28313720824856   -3.51605278904746   -2.20313660798324
C        -0.49998167113457   -2.96965075153520   -1.20804830264314
H         0.50490593268174   -3.32774724385727   -1.03345339383928
H        -0.90475935134855   -4.31153857187224   -2.82422401044821
H        -3.98308369756348   -1.58184554768569   -1.69470217458297
C        -2.53973895885076   -0.42686490647345    0.34543321789501
N        -1.58335722608710    0.05122327028401    1.16708818741165
C        -1.90177406428846    1.01749348929046    2.02348979084957
C        -3.16594972798393    1.56279349527068    2.12414488695463
C        -4.16469264019027    1.08085318505895    1.28340136620050
C        -3.84284305937419    0.08286175176404    0.38833291156569
H        -4.60521944218576   -0.31023412890776   -0.26389804189632
H        -3.36834992334067    2.33623758071704    2.84729539843011
H        -1.09311263924887    1.36494517068799    2.64786205432581
Ir        0.42150000000004   -0.81649999999990    0.91330000000014
B         0.43158628035950    0.60978141002529   -0.61235315643508
O        -0.30470219541745    0.39358681034123   -1.76462904851062
C        -0.36069591419388    1.59340025860704   -2.54360898953898
C        -0.23271531566471    1.25067820603779   -4.02585504536225
H         0.63671385116345    0.62622765392650   -4.20297599799404
H        -0.15539354397701    2.16097471905221   -4.61463447556655
H        -1.11597271779329    0.70076000544446   -4.34240608428474
C        -1.73480500491897    2.22970906261836   -2.28785138584843
H        -1.86766878342734    3.13180631120688   -2.87770737461926
H        -2.50637868107050    1.51179334309654   -2.55965808300189
H        -1.84788166404716    2.46096295006571   -1.23047494065426
C         0.81771060255003    2.43687673148308   -1.95419749496749
O         0.98402446552846    1.86744547469541   -0.64815072389329
C         2.13593536188040    2.20923103837165   -2.70366402124321
H         2.36016839166647    1.14538327557461   -2.71430376055616
H         2.09140273720627    2.60232443352766   -3.71511750429019
H         2.93466851805613    2.71038950886410   -2.16208350063468
C         0.54569594159672    3.93538254719059   -1.83831340374209
H        -0.26897018788412    4.13452397985214   -1.14897239012081
H         1.43708565884064    4.43102434906197   -1.46101382001365
H         0.30397859402096    4.34700561996932   -2.81488429907325
B         1.56385678589676    0.63941573826603    1.87986414154855
O         2.93216156990509    0.71156291122141    1.99875547506557
C         3.31539546762668    2.01184547052527    2.46976568177370
C         4.49211936115169    1.89100514216980    3.43629683239003
H         4.26869748802798    1.20316122631185    4.24487257802774
H         5.35693054237106    1.51008380957620    2.89922248585352
H         4.73639070673660    2.86634853638866    3.84836075857918
C         3.74943247842857    2.80844577947884    1.23337624990677
H         4.03968424221135    3.82225301739583    1.49196770359088
H         4.59785023857738    2.30362347933493    0.77689237472789
H         2.93485994660261    2.81212302767709    0.51372793583936
C         1.98853224572004    2.55219183598438    3.10465388123408
O         0.98792613330295    1.73085728930829    2.48821305716933
C         1.68581643696825    4.01893299970820    2.80422517152750
H         1.54309526429210    4.16398282774082    1.73856161925101
H         0.76849643397045    4.30537523884386    3.31283950201268
H         2.49540166497457    4.65111785086399    3.15836613241086
C         1.90053567116840    2.31344097784546    4.61758410750303
H         2.04220696261353    1.25837362592633    4.83703128957424
H         2.63504337561706    2.90731359531296    5.15284858561469
H         0.90612026962054    2.59081543729899    4.96017715272820
B         2.27820000000044   -1.33090000000066    0.17409999999954
O         3.12115959927849   -2.25533589431475    0.75686009659348
C         4.40040702015458   -2.24695272070508    0.11056591096112
C         5.34630325053571   -1.45954702267040    1.02373403668259
H         4.91042898056372   -0.48508912999239    1.22333408631433
H         5.43021080209815   -1.98770923773196    1.97009315602673
H         6.33435344695650   -1.35954882139365    0.58571078748510
C         4.90935172963255   -3.68187534492771   -0.02855731951353
H         5.06221283584680   -4.09592478053314    0.96453022864776
H         5.85404021457623   -3.69342466984299   -0.56477233528024
H         4.19090950952447   -4.30889922675680   -0.54565878628938
C         4.09934230689508   -1.51363186984494   -1.24414027171540
O         2.84899944812811   -0.85545538932880   -0.98365655932403
C         5.13832098393116   -0.47059791714078   -1.65176083894795
H         6.11651676229477   -0.93210574408321   -1.75416776407131
H         4.85268532150210   -0.03734817888058   -2.60685336527978
H         5.18141655057669    0.32664219356527   -0.91801658142253
C         3.86844430518120   -2.47648456417893   -2.41660615864463
H         3.10150026684755   -3.20271128847528   -2.16199335502185
H         3.51757559121314   -1.90461655475202   -3.27217695211704
H         4.78633302502239   -2.98966987143632   -2.68645961405775
H        -3.21124916189577   -3.39787107260907   -3.15911301254942
H        -5.16919609636341    1.47329485857155    1.33335251140930
C         0.23590000000005   -1.68140000000021    2.96030000000001
C        -1.04345719881251   -1.97775901367995    3.40185627968188
C         1.19929735684909   -1.62058999958984    3.96452440466087
C        -1.38177061034740   -2.09553983690837    4.76507605932841
O        -2.19684188689609   -2.18184465989551    2.68792467793422
C         0.89079646542676   -1.76057001638721    5.32221160213046
H         2.21678707373980   -1.45037346714653    3.65385288048091
N        -2.73760045266299   -2.34697547203952    4.84688308986526
C        -0.41555071388410   -1.98328279869410    5.74891526038789
C        -3.15166161295018   -2.38799725484693    3.62552711365107
O         1.82464721083605   -1.69282026513007    6.32205223521899
H        -0.64782012777521   -2.08022917488741    6.79510173076350
C        -4.54294134144093   -2.63367427363221    3.18165120941179
C         3.19200138456509   -1.64227654498953    5.97342740244238
H        -5.19284992239611   -2.64683675129826    4.04998890790722
H        -4.60448412999869   -3.58972673192770    2.66393722550215
H        -4.85015448367180   -1.84980361633251    2.49149188470716
H         3.72946344892046   -1.65276227895856    6.92020661515967
H         3.43510154128229   -0.72803608557889    5.42419566464206
H         3.48017125864153   -2.50935177746730    5.37268399856473
