  104
 energy: -155.489409028164 gnorm: 0.000291546621 xtb: 6.4.1 (1a32961)
N        -0.94191211427721   -2.02823421507873   -0.30181670224876
C        -2.19351710203567   -1.55544900450709   -0.43134970718632
C        -3.12042828537118   -2.19624432509653   -1.26303361976856
C        -2.75284178787572   -3.32497083275282   -1.96217335995713
C        -1.45203364807633   -3.80048507032134   -1.81912505652550
C        -0.59513914820810   -3.11646751864819   -0.98233536248593
H         0.42342932607960   -3.45006106345069   -0.84065050638016
H        -1.11889475770852   -4.68079521783578   -2.34477437975274
H        -4.12477126318574   -1.81793638140685   -1.36004243039487
C        -2.51694698471031   -0.35987879620943    0.33564674530377
N        -1.54644681877401    0.12424340151851    1.13728683822718
C        -1.80931409343110    1.19418136411328    1.88232672304352
C        -3.02213513750888    1.85349524952572    1.87121364939581
C        -4.02342545765659    1.38653664765182    1.02500355648250
C        -3.76232420777670    0.27369909845805    0.25446876682652
H        -4.52480537088718   -0.09925593907458   -0.40915433434751
H        -3.18209963239308    2.71052284991987    2.50586263310249
H        -0.99632676268158    1.53215537080345    2.50675536239183
Ir        0.42150000000003   -0.81650000000001    0.91329999999991
B         0.39334951372192    0.56143331730687   -0.65054627439568
O        -0.17351648598765    0.20333623396785   -1.85966393277852
C        -0.30015136135939    1.35166646781311   -2.70498440490568
C         0.04943929618825    0.97058164558638   -4.14146633234071
H         1.00790802019510    0.46366896625909   -4.17881271411525
H         0.07757933363523    1.85746077844762   -4.76937809281630
H        -0.70874482736873    0.29197132799257   -4.52474582818000
C        -1.76841253918055    1.79671209167434   -2.64186380743627
H        -1.95250115223665    2.63905709497140   -3.30222654302557
H        -2.39701567798241    0.96198405111553   -2.94549571665757
H        -2.03488194474942    2.06378156011375   -1.62112586366042
C         0.67354192965761    2.37535727067893   -2.03409913503094
O         0.75209480877554    1.89105557241513   -0.68584133420923
C         2.09069969133307    2.29924513028530   -2.61550746119950
H         2.45725139893172    1.28045802417575   -2.51599800119478
H         2.11164412049483    2.61707186670383   -3.65393327028059
H         2.74337005327513    2.94583689178019   -2.03418196310298
C         0.19399287817731    3.82541921095342   -2.04132662452400
H        -0.72971041210240    3.93856311063441   -1.48246850144592
H         0.95037163743265    4.45231563417109   -1.57535411502720
H         0.04249620433341    4.16112762242558   -3.06404648499256
B         1.62563662326306    0.64322123061641    1.82570083760108
O         2.97312920345353    0.86148888424154    1.67947755003162
C         3.34181279744452    2.13111363179694    2.23181956052319
C         4.67277754488857    2.00391918108930    2.97295972673008
H         4.63288894370093    1.20775383298295    3.70815170716894
H         5.45494317171677    1.76532049308303    2.25669663262892
H         4.92152546983814    2.94231078469115    3.46157103125228
C         3.50970918250652    3.08920681598109    1.04627052407723
H         3.77473528972999    4.09026560329169    1.37369116497364
H         4.29724520846599    2.70508866934143    0.40208278335225
H         2.58733966374188    3.10349472332246    0.47219715763282
C         2.11261424190192    2.48941047642917    3.13752940663769
O         1.08871677057809    1.61675982034509    2.64459477293652
C         1.63337916855062    3.93695486811826    3.02784084303820
H         1.30171201512043    4.15478345820490    2.01820856960630
H         0.79262226675256    4.08423076577224    3.70156919751682
H         2.43038159712608    4.62007369813181    3.30879607026629
C         2.32731799279140    2.14266070105905    4.61595812030238
H         2.59529038638981    1.09518776497730    4.70586672881409
H         3.09816311071691    2.76552975549344    5.05927611925057
H         1.39337956530999    2.29800388754892    5.15137733393691
B         2.27820000000004   -1.33090000000004    0.17410000000018
O         3.07541900997302   -2.36510478184819    0.61949797292394
C         4.36404768364158   -2.30592499006007   -0.00404894304570
C         5.31510815205431   -1.67344909958306    1.01771325596959
H         4.89856802927389   -0.72185976603609    1.33606587032322
H         5.36906539944698   -2.32927900996426    1.88284353258414
H         6.31272747860012   -1.54305505202515    0.60990619385289
C         4.83752903199369   -3.72260352930164   -0.32966666634458
H         4.95402332803493   -4.27384687598211    0.59968566389093
H         5.79461493146479   -3.68861080354632   -0.84266528292538
H         4.11524762362637   -4.24940692518789   -0.94406039684955
C         4.10606032043986   -1.38637016231455   -1.24871776855630
O         2.87797442782314   -0.72738341452913   -0.90902276293555
C         5.18366073226670   -0.33308077538997   -1.50153667882538
H         6.14970405741370   -0.80638963126074   -1.65411257675664
H         4.92498894511891    0.23339827118327   -2.39258382212781
H         5.23491937701804    0.35540766120579   -0.66546391058995
C         3.85669921842315   -2.17295369653325   -2.54312182539416
H         3.05507394973436   -2.89146512377787   -2.39621387634455
H         3.54280496223130   -1.47701315810800   -3.31743162743910
H         4.75727786123112   -2.68356876437795   -2.87065007253373
H        -3.45837967092873   -3.82805071656669   -2.60608619850326
H        -4.98225980092237    1.88033118104588    0.97361066413752
C         0.23589999999993   -1.68139999999937    2.96030000000098
C        -1.06101756046336   -2.01113154312105    3.34322430590971
C         1.17220174306989   -1.66926860026403    4.00546440234387
C        -1.42377897470513   -2.20905101223662    4.69193643781045
N        -2.20250862197499   -2.20790958711672    2.58371786349422
O         2.46464882315925   -1.44156089086801    3.63047092204685
C         0.80501529117081   -1.87615554135851    5.33905417212561
C        -0.50456621355004   -2.14031131606567    5.71322937828191
O        -2.76114527879300   -2.49640385204787    4.72736479153395
C        -3.14234155756242   -2.47795338536212    3.41757330998722
C         3.50147627515430   -1.67488877598461    4.55691693891375
H         1.55043661318903   -1.83618062993270    6.11675745404778
H        -0.77964925718498   -2.29619036757901    6.74315396040905
C        -4.55707747724783   -2.76518904867478    3.08966064531362
H         4.42125460986189   -1.52798199665092    3.99422648257318
H         3.46864848330491   -2.69851205449869    4.94489833672824
H         3.47702466692977   -0.97151493362852    5.39752377616859
H        -4.71513686593982   -2.58372988408178    2.03184369294011
H        -5.21121628971008   -2.12912295229452    3.68280507108832
H        -4.78865720052546   -3.80352087282871    3.32262424730828
