  104
 energy: -150.794812559144 gnorm: 0.000260826624 xtb: 6.4.1 (1a32961)
N        -0.89828282454446   -1.90808794299457   -0.55525817568751
C        -2.10313373147179   -1.33073959131892   -0.73783488074895
C        -2.87165235256463   -1.60922600988226   -1.87359699775694
C        -2.40238392341680   -2.49508065502222   -2.81858682782258
C        -1.16314017421824   -3.09564004278669   -2.61104288186413
C        -0.45734280075147   -2.76297151790828   -1.47410083906236
H         0.51127529760106   -3.19912672051082   -1.27449769008429
H        -0.75948185751775   -3.79904775195304   -3.32119746546103
H        -3.81974516179805   -1.11977639435488   -2.02677047476145
C        -2.53462140035183   -0.39936848733921    0.29684788326301
N        -1.60964888215399   -0.04279388906526    1.21376072618989
C        -1.96614233742658    0.79101793749970    2.18729525547853
C        -3.23299486138965    1.32457867859678    2.30919033962119
C        -4.19687153414818    0.97132487331277    1.36767395215041
C        -3.84064247863044    0.10189464129938    0.35930677746845
H        -4.57721406652561   -0.20295507930379   -0.36607190581471
H        -3.46621553425909    1.99221638207103    3.12290083260808
H        -1.18797272435301    1.03830183076032    2.89279864122222
Ir        0.42149999999964   -0.81649999999989    0.91330000000033
B         0.44086630965231    0.68349888822253   -0.55949903939671
O        -0.35205654663229    0.54573619302866   -1.68779850386882
C        -0.39557018960561    1.77720785980858   -2.41400450305323
C        -0.37498328235253    1.49339991492220   -3.91378433512918
H         0.46218922588587    0.85513306349849   -4.17546503960039
H        -0.31167582634706    2.42558881464670   -4.46939973374312
H        -1.29299245368874    0.97982422130326   -4.18996366197099
C        -1.71969272165594    2.46397243218343   -2.04839802714464
H        -1.84474289941894    3.39444983044847   -2.59412910181096
H        -2.53949392697314    1.79308356471214   -2.29785727050516
H        -1.75575318107382    2.65605008536085   -0.97789657192395
C         0.85269470040774    2.53971711991258   -1.86323606711590
O         1.05667988557052    1.91480146721886   -0.58918438367345
C         2.11553809861573    2.27676536252633   -2.69250214984066
H         2.28142126433293    1.20428355483482   -2.75948105089921
H         2.03795806727166    2.71431979250605   -3.68370185146974
H         2.96849683460273    2.71295646642770   -2.17742607223749
C         0.66162720016453    4.04496396136351   -1.68431255253084
H        -0.09937094652323    4.25793729588650   -0.93962239677738
H         1.59726010048846    4.48765358447204   -1.35040144006332
H         0.37975252769799    4.49948637831865   -2.63069141620267
B         1.50988204753350    0.70961335871918    1.82483461241086
O         2.86802670682142    0.88192660085579    1.87639027411959
C         3.19532484643977    2.16011244065425    2.43839266409262
C         4.33813741168811    1.99208005877661    3.44053145940517
H         4.08706811552128    1.26182586521168    4.20230881241054
H         5.21947804294468    1.63731447738151    2.91234500463700
H         4.56950543973932    2.94434521210004    3.90982672547197
C         3.66895578241686    3.04189467825633    1.27660373698112
H         3.88691422723134    4.05342369215900    1.60549022219918
H         4.57248392901412    2.60624330354418    0.85580647096042
H         2.90532774459581    3.04647688544566    0.50415792286791
C         1.83262940006325    2.63318449677213    3.06322326712020
O         0.87681390056514    1.74253268908980    2.47442107979549
C         1.43709295514820    4.07025212549876    2.72238580899041
H         1.32780595898340    4.18952808103738    1.64969052654334
H         0.48029071543405    4.29248988029923    3.18872998723840
H         2.18026522798189    4.76783520550608    3.09851062243826
C         1.75578691341694    2.43968408652698    4.58304959802840
H         1.93386544713471    1.39875755542600    4.83747310884219
H         2.47041606164329    3.07600004988439    5.09556178632044
H         0.75332444632052    2.69609367158659    4.91807577883245
B         2.27820000000099   -1.33090000000049    0.17410000000040
O         3.23177547179029   -2.08676233962559    0.81951708324004
C         4.46318385874839   -2.07180632568733    0.08899288518075
C         5.38949491527523   -1.08500832023064    0.80790562695224
H         4.88697829620812   -0.12558793610917    0.88858904735718
H         5.56651817472574   -1.45290474349627    1.81544808458748
H         6.34060798443745   -0.98193929322749    0.29456307077077
C         5.09109723346365   -3.46556010772672    0.12103285320339
H         5.34181570742971   -3.71099710925975    1.14957502918637
H         5.99804488316554   -3.48074668375076   -0.47701926955421
H         4.40172420705105   -4.21948445542772   -0.24395987203661
C         4.01929586207416   -1.57579671644005   -1.33312554712731
O         2.73210065371496   -0.99148933240185   -1.08344041179871
C         4.93272285361897   -0.52195976114271   -1.95783056455544
H         5.94356559194253   -0.90767827788804   -2.05677750513950
H         4.55724095298694   -0.26588307638821   -2.94552201530351
H         4.93912348052818    0.37909864801617   -1.35414270593198
C         3.81514255550862   -2.71800999183327   -2.33797682345445
H         3.13938732542080   -3.46382618895948   -1.92866767517559
H         3.36249093235791   -2.31109600181255   -3.23898641358660
H         4.76154148074967   -3.18319813819529   -2.59653907609452
H        -2.98176818757952   -2.71370693772266   -3.70290770440141
H        -5.20149692723062    1.36196304157724    1.42943175058773
C         0.23590000000239   -1.68139999999595    2.96030000000088
C        -0.96830701369272   -2.23075460614771    3.39228092798316
C         1.21495792110476   -1.31831482606561    3.90504142037520
C        -1.19575641226985   -2.22502059317343    4.76814444073451
C        -1.99336774628813   -2.86985115788712    2.49888794731056
C         0.99543202644756   -1.33941557809113    5.26543405788191
H         2.18505723406830   -1.02680348481779    3.53437858663732
C        -0.25009709096007   -1.77205945227921    5.71032684062605
N        -2.27237089282420   -2.63849765893745    5.52012397934908
H        -1.60399259507531   -2.97782340069963    1.49179658385475
H        -2.90811039001314   -2.27678754760913    2.45718691040301
H        -2.24889178509211   -3.85995099483028    2.87883399317851
H         1.76012439365896   -1.05541713323690    5.97201762845051
N        -0.76185266232099   -1.90806482987136    6.98031046022319
C        -1.95122555585002   -2.41774380120564    6.83207891383260
H        -3.13663591151216   -3.01669638059505    5.17244000636001
C        -2.88878809683986   -2.74113146261254    7.93590836954500
H        -3.80839749216722   -2.16626036823708    7.83402809017577
H        -2.41666696642753   -2.49635469489976    8.88180429191766
H        -3.13946683727504   -3.80096169058930    7.92272440004157
