  101
 energy: -151.862796335928 gnorm: 0.000250779176 xtb: 6.4.1 (1a32961)
N        -0.92522387076050   -2.03403119152181   -0.31447800558621
C        -2.19974503400039   -1.61459167462152   -0.38499640346596
C        -3.12784543431621   -2.27285661385522   -1.20084487116991
C        -2.73737536467842   -3.36559701024452   -1.94424284063975
C        -1.41385393811405   -3.78790747919439   -1.85943276885851
C        -0.55694689558097   -3.08846594740181   -1.03482496259551
H         0.47905135434184   -3.38114907583258   -0.93667327815420
H        -1.06271340848624   -4.63947338480486   -2.41951651035206
H        -4.14968074136253   -1.93543936659442   -1.25440162522387
C        -2.54728753463162   -0.45725178485088    0.43116517206850
N        -1.56354363130872    0.06405056630901    1.19053190217723
C        -1.84354321913236    1.09974881975320    1.97570437800115
C        -3.09247314881860    1.68398119392518    2.05291718588144
C        -4.11310432244248    1.17343358202919    1.25755128296921
C        -3.83182495872381    0.09793667699609    0.44208042919797
H        -4.61044253494225   -0.30948874079042   -0.18087507180505
H        -3.26365720400822    2.51610891910379    2.71699719257363
H        -1.01573104986246    1.47448185907538    2.55786684658317
Ir        0.42150000000002   -0.81649999999998    0.91329999999995
B         0.42201867383374    0.57693112217922   -0.63560421192692
O        -0.17732993207537    0.25871364220213   -1.84052907600111
C        -0.23571794611748    1.41438397529795   -2.68286583308562
C         0.08781008772823    1.01703700219362   -4.12124241405543
H         1.01871738031821    0.46155722388543   -4.16369673146695
H         0.15938844912162    1.90222011556248   -4.74802580342823
H        -0.70614535308319    0.37945142389828   -4.50238076118525
C        -1.67487408907031    1.94537887312883   -2.61515479480911
H        -1.80692410076418    2.80734405626812   -3.26238256443237
H        -2.35189820816878    1.15515321950026   -2.93319836912147
H        -1.92540416608069    2.21142563224680   -1.59033064427999
C         0.80008760905665    2.37773738243255   -2.01360827397580
O         0.86828030059917    1.87861548828386   -0.67077772837839
C         2.20650869672596    2.23194277884906   -2.60786176157149
H         2.51912532816105    1.19407070501407   -2.52367335682327
H         2.23895585522915    2.56191634013455   -3.64218349396307
H         2.89668764199350    2.83430632204485   -2.02182698517102
C         0.39967392965556    3.85192341822232   -2.00425268262838
H        -0.50821020488910    4.01078983422664   -1.43094513503597
H         1.19553346973272    4.43349194111657   -1.54522977707728
H         0.25235327483296    4.20327034539573   -3.02233809004788
B         1.59890032675497    0.62387234718559    1.87446052977309
O         2.97377669913784    0.69571961196453    1.91958621925840
C         3.38517963905777    1.97083716155879    2.43020334745599
C         4.61426716107399    1.80388261834574    3.32243170300700
H         4.44095123663722    1.06147499655790    4.09469374291259
H         5.45299338220333    1.47101674871739    2.71618561794265
H         4.87180854401180    2.75355953285738    3.78373870915207
C         3.74590951321494    2.82906161923770    1.21148300604477
H         4.05598459814456    3.82827579312092    1.50261086155273
H         4.56084509785380    2.34667549188382    0.67668877447419
H         2.88794414636824    2.87000950046176    0.54522116824623
C         2.09853192789489    2.47781778321360    3.16544895321357
O         1.06279688938717    1.68861816249169    2.56679554248840
C         1.78289109836058    3.95857362902629    2.95952758697745
H         1.58030687759382    4.16168327448278    1.91337129002819
H         0.89726544575504    4.21730097804240    3.53478822463189
H         2.61354007287964    4.57057552369330    3.30039336898149
C         2.09945001491281    2.16757776706595    4.66806369638497
H         2.28588859866731    1.11037160175052    4.83546186367708
H         2.84628590020863    2.75914534202813    5.18884802009766
H         1.11794587496804    2.40126848508538    5.07449275910863
B         2.27819999999985   -1.33090000000100    0.17409999999931
O         3.05981317037935   -2.35955187506682    0.66579442966361
C         4.35704970816694   -2.33845272272716    0.05856497988147
C         5.30516129211085   -1.69667826755527    1.07761107982725
H         4.91416674294433   -0.72194846073927    1.35541125829543
H         5.32163224611087   -2.31687280759197    1.97057687707175
H         6.31445763383717   -1.61068543314441    0.68705914691199
C         4.81099683720075   -3.77044974261271   -0.22491926083776
H         4.91601116278795   -4.29699076295832    0.72007170807160
H         5.77075710783701   -3.76462534699943   -0.73392928825277
H         4.08352324682659   -4.30383298964971   -0.82753115565552
C         4.12887962330826   -1.44880419320537   -1.21338487981900
O         2.90898261534042   -0.75778593900504   -0.90689182078028
C         5.23130123113045   -0.42701925256588   -1.48635068752549
H         6.18566737217293   -0.92817301185585   -1.62257337986489
H         4.99040533881163    0.12406942651391   -2.39188547020690
H         5.30043866904980    0.28085739528666   -0.66790996212413
C         3.87615207012558   -2.26654077904058   -2.48772461183738
H         3.06125208712022   -2.96725690914883   -2.32788740835684
H         3.58059000212524   -1.58636339956907   -3.28302556072361
H         4.77023446866555   -2.80132265136216   -2.79356288890865
H        -3.44340495430378   -3.88149956900560   -2.57737316363616
H        -5.10256248674468    1.60513862084863    1.27838032436275
C         0.23590000000040   -1.68139999999976    2.96030000000006
C        -1.04377160511610   -2.06646846316791    3.37259840747792
C         1.17430526825950   -1.52785143826750    3.97342074992431
C        -1.37208880040009   -2.19048647690217    4.74563005508287
N        -2.15864171857743   -2.37073923537352    2.62443927164747
C         0.82096795855081   -1.65504430394391    5.31105120801393
H         2.19797673530653   -1.29647098358346    3.72595880092444
C        -0.44556494358742   -1.97674102548316    5.75414835743723
N        -2.69355648604066   -2.55450202413109    4.77327787255495
C        -3.10554888718031   -2.64991513553330    3.46898661196590
F         1.79286328139699   -1.44979956515584    6.25362479687835
H        -0.67410060055946   -2.06161942287711    6.80366761882251
H        -3.24625906608933   -2.73488877679808    5.59458054877724
C        -4.49083102513789   -3.03514696442968    3.10553894469351
H        -4.59529182092055   -2.98511876662188    2.02649623165618
H        -5.20834967647316   -2.36124434910342    3.57083885552659
H        -4.70312375780986   -4.05003324661491    3.43891316036671
