   93
 energy: -136.981326874121 gnorm: 0.000192552000 xtb: 6.4.1 (1a32961)
N        -0.88780077239272   -2.05479577863343   -0.35149054161333
C        -2.17841540927768   -1.68390550410746   -0.40908732144021
C        -3.10891424850546   -2.43004915362646   -1.14395276683649
C        -2.69661539985654   -3.54215007065608   -1.84535467652917
C        -1.35104257049968   -3.89684183121768   -1.79902599126456
C        -0.49845125427564   -3.12687328585817   -1.03515122681572
H         0.55137498855495   -3.37279988499857   -0.95707557536405
H        -0.98143102270703   -4.75583887199204   -2.33508164406265
H        -4.14890410132831   -2.14912953326813   -1.15640110827549
C        -2.54225241238592   -0.47790884158415    0.32558094015447
N        -1.60075182348037    0.04827775688579    1.13402780306394
C        -1.89865555757652    1.14279619348147    1.82928236896102
C        -3.12009306724975    1.78236653728322    1.75987144381544
C        -4.09031403647073    1.27045654724835    0.90372462061910
C        -3.79269131453600    0.13458120078643    0.18170416712045
H        -4.52367696966790   -0.26771267813540   -0.49985429803672
H        -3.30835019817293    2.66162720251302    2.35458837665093
H        -1.10636972947715    1.52079594671069    2.45735470245818
Ir        0.42149999999988   -0.81650000000007    0.91329999999998
B         0.40759377884271    0.62895800389635   -0.59044878608467
O        -0.25664678886998    0.35469444421581   -1.77062388788650
C        -0.30919805605381    1.53034327069362   -2.58737172377081
C        -0.08694292642382    1.14970218933530   -4.04884566000467
H         0.81285827084521    0.55332531356713   -4.15693705751734
H        -0.00949050538692    2.04440981284333   -4.66107708868254
H        -0.93055387980179    0.55777030062380   -4.39594243510214
C        -1.71464089850929    2.12637182392398   -2.42447902812951
H        -1.84613443267547    2.99993489843192   -3.05597535077033
H        -2.44712130356677    1.37195500622186   -2.70417369978008
H        -1.88872538237861    2.39419099599077   -1.38416470944438
C         0.80505488490942    2.42989505446236   -1.95897136159059
O         0.90652287771931    1.90999999839613   -0.62450821465110
C         2.17348017676653    2.21603052785340   -2.61706749545663
H         2.42811345932324    1.15997168663853   -2.57156591582859
H         2.18098004707569    2.56985130597615   -3.64394306426605
H         2.92191338115038    2.76188121846938   -2.04749154011947
C         0.48456995110786    3.92232770838691   -1.91715374759503
H        -0.38227503171662    4.12250586721865   -1.29532279650072
H         1.33357873656174    4.45690566265058   -1.49808206538220
H         0.30157132051529    4.29065745945788   -2.92335170590154
B         1.55942498428989    0.62866087757622    1.90881229820281
O         2.92940349432643    0.74248875524981    1.95285374472189
C         3.30082891359414    2.01827958455322    2.49664580220268
C         4.53500826890484    1.86702470177387    3.38438943794600
H         4.38749180220571    1.09808586055677    4.13545539833266
H         5.38371521349616    1.57978080967540    2.76910033082267
H         4.76038715504345    2.81182885511445    3.87149354297551
C         3.63510665629697    2.91776451860566    1.30068758716902
H         3.91030275391747    3.91897754078300    1.61826218652041
H         4.46816662866523    2.47669167036446    0.75804160423827
H         2.77894747625299    2.94715491756932    0.63150250780618
C         1.99933408239068    2.46447210846022    3.24584038558771
O         0.98800121169905    1.65461406158457    2.62971906157874
C         1.63399576294482    3.93812438115543    3.07780812376790
H         1.43022287603662    4.16370633226241    2.03650844684742
H         0.73753645628124    4.15048696950202    3.65526702675364
H         2.44133220885264    4.56851417467488    3.44030329791731
C         2.01218620226520    2.11440955524697    4.73951443110299
H         2.23490439884452    1.05946236572349    4.87500963647974
H         2.73736150722503    2.71851646158554    5.27595860319195
H         1.02265032660253    2.30131667404011    5.15063938776424
B         2.27820000000076   -1.33090000000125    0.17410000000082
O         3.09235756214959   -2.29628415324515    0.73006660417372
C         4.38581215894162   -2.27710384181257    0.11182604820972
C         5.32219961162924   -1.55368765886947    1.08581491449444
H         4.90234050360505   -0.57941164077267    1.31921761280764
H         5.36875579808859   -2.12766425425026    2.00802409495547
H         6.32388450603154   -1.45539591154070    0.67943200759480
C         4.87395221412460   -3.71189024452252   -0.08856070524601
H         4.99343298556989   -4.17910545560762    0.88547433712901
H         5.83228061045399   -3.71326409955147   -0.59999825394054
H         4.15899623882948   -4.29828204209050   -0.65592431315593
C         4.12685612913313   -1.47051697234577   -1.21004964720107
O         2.87700463390223   -0.81179969983973   -0.94708851615363
C         5.18539501710793   -0.41779387324133   -1.53392835185551
H         6.16149939960226   -0.88314884965477   -1.63817643438988
H         4.92685751529018    0.07087220339378   -2.46978287506076
H         5.21726742510814    0.33682796634867   -0.75584696279966
C         3.91713402188224   -2.36631556368609   -2.43810916583872
H         3.13232120638766   -3.09272448937223   -2.24560668963477
H         3.60011958683876   -1.74416588178699   -3.27156282707151
H         4.83526353794550   -2.87865674925178   -2.70893421451196
H        -3.40317485770949   -4.12588250458224   -2.41536769797145
H        -5.05132877554991    1.75161452973037    0.80314112603596
C         0.23589999999916   -1.68140000000103    2.96029999999974
N        -1.03010817261844   -1.99992824346056    3.22482333155238
C         1.16195144257154   -1.57592123978982    4.00722216580815
C        -1.38565958632433   -2.11747913053381    4.49047207663489
C         0.67853673703271   -1.73189765471879    5.29009423324424
H         2.20088166923581   -1.37982207498937    3.80173486806184
N        -0.60518019632291   -1.99029769368828    5.54577181038381
H        -2.42826895277599   -2.34790387246975    4.68362609574925
H         1.31822528127531   -1.65628093673387    6.16158718967719
