   96
 energy: -140.154380391350 gnorm: 0.000299830843 xtb: 6.4.1 (1a32961)
N        -0.90086288933213   -2.02437051264222   -0.39243521859584
C        -2.16289454213878   -1.57788128849701   -0.53023945867240
C        -3.02505116575001   -2.14199130425163   -1.47886516537737
C        -2.58196783431563   -3.16791420834609   -2.28505570034206
C        -1.27447214607749   -3.62022230303885   -2.12950718627710
C        -0.48313826603756   -3.01523711062303   -1.17538604528444
H         0.53767130608819   -3.33303989983100   -1.01681852177681
H        -0.88546763407503   -4.42156290899122   -2.73614598140931
H        -4.03274901302128   -1.77798840333099   -1.59085006866698
C        -2.56267261752229   -0.48579557768997    0.35095288656699
N        -1.61374799658657    0.00240672401104    1.17712470913790
C        -1.93438162425035    0.99599845284537    2.00186728054962
C        -3.19311142210313    1.55897247850329    2.06483809225864
C        -4.18183460946185    1.06973534376618    1.21648980021045
C        -3.85836047659981    0.04437753816663    0.35380917390859
H        -4.61190814207054   -0.34717350026146   -0.30874447893648
H        -3.39828713624161    2.35473533384069    2.76221732901772
H        -1.13088885155031    1.35226644340281    2.62829157288389
Ir        0.42149999999997   -0.81650000000038    0.91329999999984
B         0.40210999680574    0.62611862204828   -0.59132135907275
O        -0.29384130221504    0.38939234083771   -1.76388075725013
C        -0.38254353040439    1.59618337120247   -2.53013015480587
C        -0.21058917260992    1.28152877525249   -4.01385641206919
H         0.68269471198608    0.68875686044271   -4.18003413752760
H        -0.14938954614628    2.20384510555655   -4.58555443540573
H        -1.06798671730793    0.70984157930151   -4.36072087619610
C        -1.78567819623191    2.17322127761412   -2.29247896852037
H        -1.94651451344607    3.07204425805186   -2.88026868339423
H        -2.52239071687146    1.42514544238692   -2.57885920491070
H        -1.92389758534716    2.39425671040108   -1.23584113445628
C         0.74775036554758    2.47823858545795   -1.90582171571671
O         0.89756472159272    1.90837346734451   -0.59787312299534
C         2.09377790139172    2.29922455104759   -2.61843905838419
H         2.35286767626554    1.24326086000869   -2.62932300782380
H         2.06599514938796    2.69820464195862   -3.62824246946270
H         2.85963491156776    2.82193819522660   -2.05031003630746
C         0.41985199784393    3.96557562160066   -1.79482396122894
H        -0.42507225325774    4.13425918807404   -1.13442642537939
H         1.28006147381168    4.49004952030743   -1.38587618275754
H         0.19788584739759    4.37147007477841   -2.77849548621754
B         1.55369275750224    0.63822617058943    1.89418226319484
O         2.91961372003914    0.75867423518555    1.94683160739743
C         3.28351774963775    2.02444690684729    2.51835515742472
C         4.49294503960524    1.84863851085194    3.43504823371871
H         4.31532194145116    1.07148309234158    4.17105842066901
H         5.35369917868838    1.55883049834297    2.83785067233529
H         4.71682493693608    2.78413711094283    3.94042099364831
C         3.65503179927554    2.93741476735564    1.34359980703334
H         3.92284883148854    3.93417594489625    1.68072586797951
H         4.50305217968469    2.50093867341648    0.82085372906984
H         2.81912482291009    2.97753988554120    0.64980657781039
C         1.96660034441630    2.46918231993690    3.24316097108384
O         0.96684989608618    1.65714488860059    2.61070312462528
C         1.60248291303215    3.94220428566940    3.06310546857581
H         1.42285816375905    4.16593380300400    2.01696004149353
H         0.69216016632413    4.15439850853237    3.61853689346433
H         2.39980578547993    4.57456590228683    3.44364880410700
C         1.95047571517463    2.12623460230968    4.73836651981434
H         2.14400296150592    1.06709187908817    4.88643445101498
H         2.68190992616545    2.71592443150740    5.28205374832721
H         0.96073041370087    2.34185661278990    5.13466528584290
B         2.27819999999991   -1.33090000000040    0.17409999999813
O         3.11338694032953   -2.27683254467829    0.73026243358320
C         4.40411716680524   -2.23202917437841    0.10730056176267
C         5.32756718693390   -1.48222551353306    1.07345885002285
H         4.88776119206111   -0.51563962247086    1.30135247568498
H         5.38820502838171   -2.04798458853602    1.99985126549842
H         6.32580913528359   -1.36581379090397    0.66329558009030
C         4.92500266683995   -3.65602576335886   -0.08725924400387
H         5.05866333136883   -4.11495740194876    0.88879351625328
H         5.88155807297626   -3.63669708901324   -0.60168818757843
H         4.22280717484909   -4.26227370776575   -0.64961744042435
C         4.12362496140955   -1.43875946461136   -1.21855392170560
O         2.85955147074606   -0.80875745798280   -0.95626214128456
C         5.15515558311599   -0.36166845332706   -1.55007220285498
H         6.14246964008881   -0.80258846699450   -1.65483307833325
H         4.88153500117736    0.11576797189435   -2.48751001507334
H         5.16955865227381    0.39734823482651   -0.77576361686663
C         3.93470939380127   -2.34517377043990   -2.44232583794514
H         3.17171804478977   -3.09276668852334   -2.24412972947259
H         3.59767045942239   -1.73548121764886   -3.27708784278497
H         4.86614336867253   -2.83233863525723   -2.71402891629298
H        -3.23594138240655   -3.60866380230471   -3.02185301714237
H        -5.17963491690928    1.48095432440808    1.23206180678901
C         0.23589999999950   -1.68139999999915    2.96029999999537
C        -1.02614359073384   -2.07976486816581    3.39775643031526
C         1.16838888440258   -1.53389389106894    3.99009528672026
N        -1.34877360962587   -2.19265103200071    4.67962207191214
H        -1.82479829412278   -2.33322702852830    2.70851832360560
N         0.85796335280665   -1.64536707413914    5.27161230578231
H         2.20872416695129   -1.32903797953175    3.76986656147131
C        -0.40278115549976   -1.94295229955716    5.57578354636344
C        -0.76968027939631   -2.02497079230062    7.02158414692228
H         0.08729295016374   -2.35828266598069    7.59913003116590
H        -1.60911667917846   -2.70152843154531    7.14970237404674
H        -1.06125705624562   -1.03772082606664    7.37674530937002
