   96
 energy: -140.153447877165 gnorm: 0.000168649829 xtb: 6.4.1 (1a32961)
N        -0.95832971968483   -2.04885427752030   -0.32947365737660
C        -2.22272391664047   -1.60055124866505   -0.44351915727472
C        -3.16409587787705   -2.29254208055925   -1.21835037626089
C        -2.78681383093469   -3.42661014260460   -1.90268749579617
C        -1.46717930448655   -3.86181317609724   -1.79711067137163
C        -0.60421295691596   -3.14403583575606   -0.99552362792965
H         0.42378445593129   -3.45295330487202   -0.86717061027110
H        -1.12669212176116   -4.74120243100353   -2.31898603375204
H        -4.18422618557126   -1.94992317977868   -1.27511163697455
C        -2.53930199572483   -0.37391645238670    0.27433230907754
N        -1.59007545994197    0.09765277998926    1.11414471839434
C        -1.84293591459938    1.21654950450771    1.79397231258465
C        -3.01738729651336    1.92943594144175    1.67917076902696
C        -3.99297679050565    1.47060347192594    0.79592000058683
C        -3.74521451240704    0.31358919384950    0.09020237184760
H        -4.47861943639123   -0.04976651219263   -0.61049717458888
H        -3.16994849866265    2.82316757926344    2.26226783733965
H        -1.05051634658784    1.54296256661505    2.45021205995763
Ir        0.42150000000011   -0.81649999999993    0.91330000000015
B         0.38135916687942    0.61732099720009   -0.59981173879998
O        -0.18106303925296    0.27553539707330   -1.81374933741366
C        -0.26878684101404    1.42793636766420   -2.66022967541969
C         0.12019094645234    1.04032979170366   -4.08494377172554
H         1.07798168625513    0.53097769844019   -4.09406599981593
H         0.16721874191585    1.92421369820581   -4.71566914344153
H        -0.62855899044303    0.36119715615477   -4.48575803101233
C        -1.73260754758511    1.89110221560151   -2.64497975676859
H        -1.88085479643414    2.74068748801999   -3.30497222345374
H        -2.36224342514234    1.06885419507761   -2.97933129916361
H        -2.03283450355602    2.15563368913866   -1.63309838211857
C         0.69776756454056    2.44038404050267   -1.95978979843646
O         0.75417097131007    1.94056854376396   -0.61530846576618
C         2.12512223302464    2.36845146211306   -2.51547803739131
H         2.48974465454165    1.34835878052938   -2.42185059587210
H         2.16561833703126    2.69874472591125   -3.54934838117358
H         2.76682729340541    3.00771994094421   -1.91406646667488
C         0.22265054601530    3.89179706569194   -1.95483325518643
H        -0.71109219592874    4.00005311505781   -1.41186315195564
H         0.97200731798488    4.50828909640076   -1.46454710835691
H         0.09225213724946    4.24347012951614   -2.97496868891159
B         1.60552579653746    0.61639649097554    1.86659675456679
O         2.95996413102135    0.80538672223978    1.77515775984207
C         3.32319055678692    2.05258331891458    2.38669161428732
C         4.65219137944066    1.90242432058355    3.12400938905309
H         4.62815128360453    1.05166516248084    3.79604866018129
H         5.44543487589314    1.74036826403495    2.39869073862867
H         4.87183931128831    2.80644234334458    3.68556958892623
C         3.47732254115432    3.06804354604334    1.24834620398878
H         3.74826243817940    4.05014001795928    1.62443155541643
H         4.25639928346262    2.71663399171983    0.57590973704398
H         2.54761231448337    3.11431210389767    0.68702190513447
C         2.08972867196160    2.35356024720253    3.30168802885972
O         1.05222452045729    1.56612187531835    2.69761188348034
C         1.65885338715957    3.81804067317061    3.34364830498606
H         1.33865234265278    4.15327378734992    2.36271335352070
H         0.82297493982237    3.92415600552234    4.03092588647941
H         2.47997131537995    4.43817557919294    3.69284714739438
C         2.27105803521155    1.82777489996878    4.72968712789615
H         2.53287707809963    0.77426404512404    4.69285979274969
H         3.03180038622250    2.38907040136617    5.26308230789536
H         1.32497312168017    1.92052276841148    5.25871792804481
B         2.27819999999989   -1.33090000000031    0.17410000000042
O         3.07483936925888   -2.35291778223153    0.63573231775824
C         4.36834385036598   -2.29254995555258    0.01890545699952
C         5.31113309649472   -1.65917502877813    1.04730554869945
H         4.90099068515051   -0.70205949814009    1.35647216210088
H         5.35070468218575   -2.30540988371459    1.92021179087712
H         6.31378196163026   -1.53934574079799    0.64895636538909
C         4.84354988530403   -3.70962282795743   -0.30125409778790
H         4.95288327414039   -4.25854310900099    0.63028021117581
H         5.80467820682483   -3.67654785592520   -0.80638253081018
H         4.12640682892271   -4.23809183116918   -0.92043244014079
C         4.11553011459035   -1.37552668749796   -1.23025179780974
O         2.87481298305758   -0.72778630823855   -0.90718727252242
C         5.18405818821117   -0.30973936598579   -1.46755240382586
H         6.15603135489154   -0.77318410777805   -1.61119825926099
H         4.92949569028245    0.25704287783927   -2.35964189415302
H         5.22057224839978    0.37625792261330   -0.62866466997033
C         3.89237136538587   -2.16244443777507   -2.52871250932055
H         3.09383616731821   -2.88743084022790   -2.39701379328972
H         3.58795785972839   -1.46777652447023   -3.30799548806321
H         4.80187232183942   -2.66659890011875   -2.84077695018166
H        -3.50019556428322   -3.96755691504861   -2.50561815409028
H        -4.91903448137261    2.00916245694523    0.66368230576061
C         0.23590000000188   -1.68140000000131    2.96030000000091
C        -1.06704234995355   -2.05120521817052    3.32276790575240
N         1.16523748953034   -1.55962614616567    3.89843945195453
C        -1.33057163815120   -2.16765786965925    4.67372051658058
H        -1.84115832600006   -2.23443165907501    2.59465782886664
C         0.83021739478927   -1.73541728703757    5.16873035036288
N        -0.39556183716540   -2.01309622269795    5.60218715988750
H        -2.32148221181282   -2.40896713242877    5.04295602860142
C         1.90814942057024   -1.63015201936471    6.19838388422770
H         2.87563475544222   -1.58139119678715    5.71061464973826
H         1.86217455219966   -2.49152365466494    6.86005707004540
H         1.75382351620524   -0.73730648849745    6.80069604697524
