   94
 energy: -141.497993457872 gnorm: 0.000240465396 xtb: 6.4.1 (1a32961)
N        -0.97637466926002   -2.04723257123117   -0.32717606961227
C        -2.23571462636110   -1.58963310583140   -0.44084113133414
C        -3.18034368998819   -2.26929023038635   -1.22054935326824
C        -2.80981766954164   -3.40507818959587   -1.90818793874563
C        -1.49545714820335   -3.85120906271297   -1.80110197189990
C        -0.62735076440315   -3.14177733003412   -0.99590320060515
H         0.39825897618860   -3.45785328694424   -0.86756641314572
H        -1.16064178189292   -4.73187583619221   -2.32420328522821
H        -4.19722334705620   -1.91862818805247   -1.28045250757041
C        -2.54771416299385   -0.36349948871641    0.28681111219832
N        -1.59728822822271    0.10079026835567    1.12640215548818
C        -1.84364792503126    1.21503620455751    1.81424421637051
C        -3.01912448117017    1.93036407004368    1.70902378193516
C        -3.99690912369669    1.47845781029695    0.82722059820831
C        -3.75326340274505    0.32511472709281    0.11176085380426
H        -4.49028013195430   -0.03160711584134   -0.58808577090878
H        -3.16729528126723    2.82089911126856    2.29777143810236
H        -1.04739139136193    1.53808816237082    2.46773422964705
Ir        0.42149999999996   -0.81649999999998    0.91329999999999
B         0.39779113575557    0.59907606426421   -0.61142971969398
O        -0.14291544552269    0.24625961686508   -1.83009584718260
C        -0.22193887450381    1.39460586909425   -2.68459414250793
C         0.19213126706037    1.00122026003596   -4.10028243016566
H         1.15216828705292    0.49620657818450   -4.09048266922237
H         0.24614829254374    1.88191270256167   -4.73471690039371
H        -0.54688311506397    0.31695092308140   -4.51012421479837
C        -1.68844101862078    1.84858873313333   -2.69312096899938
H        -1.83237864605526    2.69412307315944   -3.35898885062865
H        -2.30706830903710    1.02039543059209   -3.03297189757390
H        -2.00473865255242    2.11564201658140   -1.68681603157551
C         0.72869284689827    2.41522932922352   -1.97371778830641
O         0.76521572467625    1.92185438682859   -0.62484918104662
C         2.16518143567045    2.34680093798229   -2.50507275697392
H         2.53349861119874    1.32928866995551   -2.39912691162415
H         2.22083752228764    2.67111177585001   -3.54001641276349
H         2.79385745386552    2.99318232284620   -1.89762791275916
C         0.24689605416407    3.86413465577677   -1.98378013364292
H        -0.69714383445766    3.97091087719985   -1.45878036611177
H         0.98442378730274    4.48641588870799   -1.48303513760862
H         0.13389562799615    4.21029581699614   -3.00777512243853
B         1.61589087154702    0.60776781293619    1.87241426770320
O         2.96465591391471    0.80587735945721    1.77305610925737
C         3.32709122358066    2.05051592243538    2.39127663661417
C         4.64846891852376    1.89138608614168    3.14028192911869
H         4.61003898127869    1.05027306315127    3.82432080760249
H         5.44436350671550    1.70969181518448    2.42251464904673
H         4.87637672962426    2.79905016861515    3.69225942149086
C         3.49943512154092    3.06341968460610    1.25315949551956
H         3.76292934877617    4.04632139892708    1.63167695575082
H         4.29115542690021    2.71126624112959    0.59618268780680
H         2.57995372739551    3.10756397745837    0.67515901342521
C         2.08691691825644    2.35949269953459    3.29755787186920
O         1.05823222210220    1.54244932222600    2.71625293734572
C         1.63242822324820    3.81801027199215    3.29175086548268
H         1.31495764831874    4.11806879237604    2.29858268348556
H         0.78976675056749    3.93025818912034    3.96965248964078
H         2.44014587518188    4.46115510418641    3.62964502888708
C         2.27155804823459    1.89131511985061    4.74545847514508
H         2.56253188970244    0.84418262758519    4.76588625227124
H         3.01691394149117    2.48920622927485    5.26006326063633
H         1.32316588897312    1.98540321128487    5.27056820544812
B         2.27820000000075   -1.33090000000055    0.17409999999883
O         3.05724422977434   -2.35917783034068    0.64985407635454
C         4.36439584734290   -2.30368137887595    0.06031098350579
C         5.28809470468525   -1.68076020226168    1.11189662966307
H         4.88283362337932   -0.71882250431221    1.41220243420985
H         5.29852574130441   -2.32588945022708    1.98678797571213
H         6.30170159517151   -1.57271685537215    0.73892474660313
C         4.83806247103004   -3.72191194006154   -0.25613295097526
H         4.93023970973777   -4.27382548072154    0.67555190357052
H         5.80764977737090   -3.69151641601978   -0.74482367422478
H         4.12910731093243   -4.24539757274666   -0.88884957524771
C         4.14238997586784   -1.37990168976746   -1.19017863454596
O         2.89549088856625   -0.72929342834849   -0.89278252827033
C         5.21792839059211   -0.31515613403636   -1.39638440041029
H         6.19231010658768   -0.77969431933094   -1.51764156251965
H         4.98647451374974    0.25612454729151   -2.29182773855619
H         5.23497055928484    0.36646954782775   -0.55330563106975
C         3.94652267632174   -2.15931496475896   -2.49717420218396
H         3.14400941599459   -2.88353563478603   -2.38787227618383
H         3.66210283708250   -1.45977691824039   -3.27954571407231
H         4.86193074573528   -2.66377274489881   -2.79046913936299
H        -3.52624995211105   -3.93752267725591   -2.51474358919084
H        -4.92275834762461    2.01855223111534    0.70157737987031
C         0.23589999999898   -1.68139999999963    2.96030000000001
C        -1.05376523215446   -2.07520673265418    3.36293062938297
N         1.17617718973423   -1.50431686269386    3.88285758105439
C        -1.30832073978798   -2.14521468487035    4.71815839687060
H        -1.82711533936866   -2.30310413368967    2.64721533400882
C         0.83485124797327   -1.62936234935296    5.15706467722314
N        -0.37368897715550   -1.91613728011894    5.63532264419063
H        -2.28648034623086   -2.39705822444775    5.10916705443990
C         1.87195034422870   -1.44733185055053    6.12176095792308
N         2.70306561383855   -1.31360370444047    6.89924383102351
