   94
 energy: -141.497992796798 gnorm: 0.000322123564 xtb: 6.4.1 (1a32961)
N        -0.97667632828598   -2.04674432094740   -0.32724758792591
C        -2.23613945233738   -1.58934351796782   -0.44031496371167
C        -3.18104515153523   -2.26909542498735   -1.21959902821530
C        -2.81076656846959   -3.40494470268530   -1.90726515968994
C        -1.49629962476571   -3.85089007631425   -1.80078989252885
C        -0.62783476178338   -3.14125019503712   -0.99615419491819
H         0.39790269479467   -3.45714945367519   -0.86840981428631
H        -1.16165420919616   -4.73157627219649   -2.32396952211715
H        -4.19795881926198   -1.91846648843890   -1.27914973326413
C        -2.54802018233966   -0.36324175314568    0.28748721547589
N        -1.59729913949253    0.10122976959348    1.12657313394949
C        -1.84333457324908    1.21564328108181    1.81428087417602
C        -3.01887313385543    1.93087954614189    1.70946154979955
C        -3.99709805128816    1.47864926097846    0.82834505173200
C        -3.75375350514568    0.32517151791528    0.11299373289362
H        -4.49122550059277   -0.03175874442867   -0.58627177840430
H        -3.16671971648820    2.82162637122146    2.29797113429622
H        -1.04670028662312    1.53886673381749    2.46722441974548
Ir        0.42149999999991   -0.81650000000006    0.91329999999996
B         0.39745994847755    0.59931581009622   -0.61166393536048
O        -0.14298100639483    0.24665106568128   -1.83061767611027
C        -0.22087792378318    1.39496437561065   -2.68540921490414
C         0.19421149763231    1.00098824503798   -4.10067123802156
H         1.15319115009962    0.49403995438840   -4.08962674480331
H         0.25091102418890    1.88162188050262   -4.73493624383927
H        -0.54566469815824    0.31833848189318   -4.51157662985140
C        -1.68707022856467    1.84975047443748   -2.69541770960942
H        -1.82985693018919    2.69449129473476   -3.36256767911720
H        -2.30603481869483    1.02158008356586   -3.03465572011973
H        -2.00398452712557    2.11842064567129   -1.68976322058036
C         0.72965512662795    2.41522859628367   -1.97402726628831
O         0.76497675602191    1.92203083213321   -0.62502783646952
C         2.16650062978745    2.34599233901369   -2.50425544907156
H         2.53432123224036    1.32840284867024   -2.39747100034473
H         2.22309009104966    2.66971635437460   -3.53932405301930
H         2.79499239604893    2.99247143271030   -1.89674756981828
C         0.24860583070399    3.86438287075370   -1.98485852571861
H        -0.69576179762615    3.97193454302631   -1.46062132107191
H         0.98611250997506    4.48642576002282   -1.48382896713006
H         0.13650338728771    4.21023701652951   -3.00905478188630
B         1.61597103226375    0.60724624133043    1.87346568900514
O         2.96509901263334    0.80403460240557    1.77633727487641
C         3.32659544806594    2.05055272119386    2.39153765893129
C         4.64819710615456    1.89522272251676    3.14075905439791
H         4.61131865545785    1.05542185640030    3.82651679197349
H         5.44455837997665    1.71371007434083    2.42347836330452
H         4.87423035463510    2.80447933529949    3.69096006479622
C         3.49701215667464    3.06046741619580    1.25053142303646
H         3.75913381660188    4.04495315353017    1.62590882285357
H         4.28896139679246    2.70755877763307    0.59422845683211
H         2.57714938135851    3.10132348193299    0.67288202530543
C         2.08629209339691    2.36043115765743    3.29707737501428
O         1.05771416923737    1.54344640561656    2.71544365778114
C         1.63248468509743    3.81911249868117    3.29026978316515
H         1.31380821807476    4.11797368088354    2.29712708618432
H         0.79086426058226    3.93273610412919    3.96922444956613
H         2.44101009392453    4.46230094180466    3.62612603803261
C         2.27036577957732    1.89262272249045    4.74515031069962
H         2.56071041315522    0.84530227141254    4.76590824595075
H         3.01613677834335    2.49021149306496    5.25954430333370
H         1.32209034009391    1.98755765705964    5.27028007398872
B         2.27820000000033   -1.33089999999966    0.17410000000044
O         3.05681961717241   -2.36029327402415    0.64828900224013
C         4.36419221433221   -2.30378617014818    0.05914676838422
C         5.28696714005366   -1.68022744030943    1.11115857860850
H         4.88169648273932   -0.71795323106014    1.41037597748342
H         5.29630473872644   -2.32470834968599    1.98654698428428
H         6.30099187658381   -1.57281518267715    0.73907614217284
C         4.83912280120823   -3.72147425626654   -0.25758368454562
H         4.93192784192440   -4.27347932643344    0.67397633309648
H         5.80867152085931   -3.68998537520312   -0.74629980865291
H         4.13070190230515   -4.24554520213807   -0.89041943404034
C         4.14182094610306   -1.37981399166215   -1.19095521655667
O         2.89589685036714   -0.72800940197068   -0.89196748501556
C         5.21838739069385   -0.31643278000166   -1.39867441046726
H         6.19213632066188   -0.78220944300983   -1.52020039067577
H         4.98703287077039    0.25440246634450   -2.29441798203455
H         5.23690783973111    0.36583436963068   -0.55617752982334
C         3.94341896329420   -2.15931338624108   -2.49750334292421
H         3.13997479101710   -2.88232749136429   -2.38695816815961
H         3.65920954813188   -1.45971572674349   -3.27989819649689
H         4.85779202877931   -2.66520201790382   -2.79160457116409
H        -3.52743494173421   -3.93753479208376   -2.51341455451108
H        -4.92316674291597    2.01852280667272    0.70323404233613
C         0.23589999999987   -1.68139999999910    2.96029999999916
C        -1.05353849026366   -2.07704278026470    3.36206381296220
N         1.17567806241912   -1.50463562193841    3.88336360188576
C        -1.30803726951347   -2.15077553343749    4.71703885122519
H        -1.82657534986601   -2.30420877935510    2.64579971888389
C         0.83421512022770   -1.63238249425570    5.15731075231876
N        -0.37381129770853   -1.92238467376487    5.63481730759457
H        -2.28580063875709   -2.40533775707550    5.10729539351870
C         1.87111491422484   -1.45036460351872    6.12222173068842
N         2.70214713320110   -1.31644120056560    6.89974127143009
