   92
 energy: -134.823530652196 gnorm: 0.000261297666 xtb: 6.4.1 (1a32961)
N        -0.94865035960248   -2.07338830709283   -0.29455206655401
C        -2.21119852347553   -1.62342831853819   -0.43335105937481
C        -3.14284330498312   -2.32176719811328   -1.21438708190276
C        -2.76187035204964   -3.46862134181406   -1.87405443025180
C        -1.44583261059006   -3.90891557483004   -1.73945138779784
C        -0.59121479677722   -3.18144962603895   -0.93890058723349
H         0.43392636514969   -3.49258598371675   -0.79340590054670
H        -1.10256237389158   -4.79957569475357   -2.24033385486854
H        -4.15940818327731   -1.97302603050990   -1.29591677608690
C        -2.53242940181189   -0.38967570877013    0.26739533035947
N        -1.58020937013355    0.09931026569874    1.09452921003452
C        -1.83556540198273    1.22646244486997    1.75919122995982
C        -3.01475983336430    1.93119175916585    1.64194495896553
C        -3.99474437321354    1.45314854850858    0.77352816947613
C        -3.74506289494371    0.28721525054514    0.08393418321128
H        -4.48284160172743   -0.09232180689349   -0.60385659460051
H        -3.16772045378910    2.83417364019954    2.21079200207509
H        -1.03996902222332    1.56760635113573    2.40346682691105
Ir        0.42149999999999   -0.81649999999993    0.91329999999998
B         0.41654931885139    0.56081401225977   -0.64375165748147
O        -0.09877246984547    0.17263884474976   -1.86669552944354
C        -0.18476169752799    1.29821261427496   -2.74598555048377
C         0.24894867545023    0.88285878736725   -4.15003842896470
H         1.21581839580227    0.39162673220636   -4.12111660147727
H         0.29742335678691    1.75173688765434   -4.80148444892856
H        -0.47619731810570    0.17999001743966   -4.55366806402032
C        -1.65774797140098    1.73156331748275   -2.78031679729503
H        -1.80861548137815    2.55681981745327   -3.47004154985399
H        -2.26152430040483    0.88506241731832   -3.10198339900233
H        -1.98711050078429    2.02016765255316   -1.78408333100922
C         0.74240301944135    2.34814753124216   -2.04843391800239
O         0.76452100479534    1.89227857533194   -0.68900093477907
C         2.18786602128510    2.28362791132075   -2.55690532524472
H         2.56379121687551    1.27201663234739   -2.42407341405488
H         2.25774143307228    2.58771100134749   -3.59740780184491
H         2.80003974980866    2.94756339431961   -1.95112296366924
C         0.24392802134701    3.79068962616011   -2.10797245056156
H        -0.70586483751345    3.90189204543668   -1.59414247976050
H         0.96965808517283    4.43717644381259   -1.62075738784496
H         0.13522298701251    4.10334618874638   -3.14341269483434
B         1.59705199893889    0.62197141790562    1.86427392259419
O         2.96073154228230    0.77694403952868    1.80888113342736
C         3.33599392666308    2.02257349918445    2.41313907941858
C         4.64941554212532    1.85972154618596    3.17505022873949
H         4.60132805840104    1.01103640496479    3.84874227737685
H         5.45450358801463    1.68590700320882    2.46566382856755
H         4.86881293273554    2.76358714699199    3.73741386020705
C         3.52194086662090    3.02571999722585    1.26788240176018
H         3.81066775239851    4.00539421428308    1.63755966573632
H         4.29808945415016    2.65224660402972    0.60375708195319
H         2.59800217343222    3.08726385756970    0.69789612524699
C         2.09328364139130    2.35103609991150    3.30316373693827
O         1.04869433817931    1.60482331908308    2.66384895506915
C         1.71117688603431    3.82855101123131    3.35859559598404
H         1.42272660893088    4.18892984108708    2.37667887165454
H         0.86550626566458    3.95465705552797    4.03025124352080
H         2.54602477242244    4.41561619191377    3.73214860426051
C         2.22505622737905    1.79504667376248    4.72626383136578
H         2.44292055497962    0.73144031745934    4.67180065282508
H         2.99842623667227    2.31499242836707    5.28313363939199
H         1.27317947115866    1.92129735939691    5.23723286217120
B         2.27819999999996   -1.33090000000024    0.17410000000002
O         3.04750316019949   -2.37778565001194    0.63734867079739
C         4.36051476082868   -2.32021540627612    0.06704144105363
C         5.27022643027753   -1.69907298609159    1.13239844755613
H         4.85859126442684   -0.73792540064746    1.42651640303750
H         5.26589384330296   -2.34564207834442    2.00598554356032
H         6.28929400192177   -1.59088153323482    0.77403344769614
C         4.84172999772890   -3.73614636910480   -0.24929810416646
H         4.92556717793715   -4.29079004966456    0.68146368052900
H         5.81596457845521   -3.70176374381870   -0.72890456052077
H         4.14003641276358   -4.25903493343942   -0.89053451200276
C         4.15424544957197   -1.39092103493894   -1.18014894871764
O         2.91924680047111   -0.72300508365044   -0.88118931058818
C         5.24930169575232   -0.34582557882728   -1.38655502020427
H         6.21557903389622   -0.82830095164273   -1.50464269249478
H         5.03030018518524    0.22776280848822   -2.28382464504597
H         5.27691110529710    0.33739139016378   -0.54500188952648
C         3.94711480306080   -2.16859685056968   -2.48723904620665
H         3.13348174212798   -2.88019779353043   -2.37554859302057
H         3.67193839355802   -1.46645463752822   -3.27078467470318
H         4.85467942026489   -2.68715642775992   -2.78113918806846
H        -3.46834700146770   -4.01553119714821   -2.47994186467586
H        -4.92546878436499    1.98376253011288    0.64006815871377
C         0.23590000000057   -1.68139999999917    2.96029999999985
C        -1.03433619625766   -2.03364310857752    3.47932439417348
N         1.10028820094432   -1.54142973193331    3.95240431692048
C        -0.87788397470252   -2.05230660349359    4.84353402536585
H        -1.93110169600314   -2.23681906566439    2.92787973141934
N         0.41501269444724   -1.75256507242484    5.08350741120982
H        -1.57137419661459   -2.25666835974731    5.63479183509197
H         0.88360388355212   -1.69250173051417    5.97336518239510
