   95
 energy: -138.002066901344 gnorm: 0.000204298365 xtb: 6.4.1 (1a32961)
N        -0.92824119464614   -2.03359626341260   -0.36416029641436
C        -2.17670529070029   -1.55761103272076   -0.53406327549730
C        -3.04734203278363   -2.13825145985188   -1.46491234571207
C        -2.62457913653796   -3.20541818912777   -2.22679401665154
C        -1.32871486066871   -3.68244895182693   -2.04478058298301
C        -0.53012551964839   -3.06397455164471   -1.10584898473320
H         0.47955589430281   -3.40418602454618   -0.92364205637397
H        -0.95598428047394   -4.51587785717151   -2.61756200697314
H        -4.04738249599553   -1.75842963652931   -1.59291818239690
C        -2.54984375864170   -0.41876819281120    0.29653910510063
N        -1.60688696634623    0.03906366292711    1.14891274165916
C        -1.90224699670237    1.07386207612260    1.93331407424647
C        -3.12452395764397    1.71442719797760    1.92006098053935
C        -4.10278016962244    1.26266414984063    1.03831104930779
C        -3.80829781663998    0.19062005217094    0.22345363026270
H        -4.55268621892710   -0.17083293295890   -0.46610582712554
H        -3.31087282856184    2.54388664361765    2.58252518914427
H        -1.10730071837360    1.39578692985833    2.58834349873497
Ir        0.42149999999993   -0.81649999999990    0.91329999999995
B         0.40998059658967    0.59218414447606   -0.62065839173675
O        -0.22204461456522    0.29083339925820   -1.81419396729953
C        -0.32480518871412    1.46630543252384   -2.62445619224481
C        -0.05946721287218    1.10843353287429   -4.08454031870883
H         0.87165554067233    0.56001169340200   -4.18127919378555
H        -0.01823304154660    2.01033091022888   -4.68975952142903
H        -0.86583841721415    0.47670963157826   -4.44965144741044
C        -1.76389969174000    1.98312406565710   -2.48326831401228
H        -1.93243439906223    2.85219321918655   -3.11208525884462
H        -2.44808473856185    1.19088592492396   -2.78112986004560
H        -1.97130525185423    2.23486289212693   -1.44497220135577
C         0.72864063609305    2.42154983219556   -1.97358899576864
O         0.84244391060133    1.89768050393622   -0.64323310158356
C         2.11462181106500    2.29172609867048   -2.61705005038613
H         2.43000154688766    1.25196573789322   -2.57404952113505
H         2.11278633084143    2.65058836499671   -3.64226060322232
H         2.82396226110445    2.87748160695345   -2.03709487401766
C         0.32308803998469    3.89325327454422   -1.92449422798014
H        -0.56381724266511    4.03876785080342   -1.31565127493814
H         1.13307864178083    4.47108475675076   -1.48593162547477
H         0.13626000275846    4.26038201767156   -2.93050357875640
B         1.57752258537480    0.63077044378643    1.87984989519644
O         2.94598135984351    0.75170973758009    1.90335933629483
C         3.31448986898481    2.03331092497516    2.43448352757582
C         4.56288386708768    1.89768676064278    3.30422127523633
H         4.43529724996016    1.12257923152617    4.05253185717065
H         5.40763466927222    1.62570661797630    2.67653962944595
H         4.78080505379436    2.84346803487099    3.79297698948706
C         3.62083912521320    2.93089704758164    1.22957241764876
H         3.90062152061957    3.93354957161689    1.53903979832959
H         4.44221653501995    2.49036272500868    0.66901241469043
H         2.74981191793860    2.95743599111960    0.57974000525921
C         2.02018765698926    2.47168637072042    3.19960319185578
O         1.00537680619609    1.66494181610000    2.58646300527664
C         1.65268016530307    3.94664613844622    3.04933612312674
H         1.43463920830407    4.18230135844077    2.01313751560109
H         0.76460134660749    4.15444915119939    3.64110346177363
H         2.46548509804193    4.57347354428989    3.40606371433147
C         2.04995064563489    2.10615179323892    4.68896477478346
H         2.26434692555286    1.04765764130448    4.80656189375493
H         2.78770023760310    2.69704342046509    5.22303103872917
H         1.06782088008795    2.29644407416061    5.11517730313338
B         2.27819999999910   -1.33089999999986    0.17410000000050
O         3.08599032379174   -2.33091338299108    0.67217869130531
C         4.37641077349832   -2.28437403683999    0.04885448692661
C         5.31523991147311   -1.59222660105956    1.04277643299799
H         4.89656883950997   -0.62493411782346    1.30600762081961
H         5.36169919487085   -2.19343788578705    1.94726686848523
H         6.31633581297941   -1.48296087555822    0.63738664283993
C         4.87030538179366   -3.70737328326400   -0.21024788014640
H         5.00286201836354   -4.21042666220541    0.74394262978044
H         5.82316865599096   -3.68239353970598   -0.73143653723823
H         4.15324581204056   -4.27594033812630   -0.79285319616626
C         4.10790366890788   -1.42843596832095   -1.23852084495414
O         2.87349254187109   -0.76364952463288   -0.92860582723345
C         5.17674219031089   -0.38165609862099   -1.54708362355710
H         6.14380968392329   -0.85770006924937   -1.68306283115569
H         4.90985847035383    0.14080556780114   -2.46231578412997
H         5.23352163928286    0.34682117866489   -0.74587107399100
C         3.86140150662980   -2.27962073841456   -2.49169237706923
H         3.07527669878297   -3.00564077685751   -2.30365913515230
H         3.52828076969574   -1.62662530427007   -3.29483566051352
H         4.76836205478497   -2.78897442052344   -2.80277274877158
H        -3.28521365139082   -3.66042933363078   -2.94889787638269
H        -5.07040563522542    1.73871314156635    0.99208611965635
C         0.23589999999924   -1.68139999999956    2.96030000000009
N        -0.99022215692008   -2.06490103874254    3.38404972955809
C         1.00903507463583   -1.62225872390817    4.10825959627385
N        -1.06564433444847   -2.21520482939899    4.71605730904542
H        -1.81263132700456   -2.22937369554703    2.82746774151996
C         0.15141167009575   -1.94583553865526    5.17242237943762
H         2.05090697545728   -1.38061599468860    4.16026469006382
C         0.48244503025524   -2.01604862748805    6.62377483812471
H         1.53793728445624   -1.80419409093203    6.77307878889852
H         0.25713906564315   -3.00713483179397    7.01393971350180
H        -0.10983232650029   -1.29407691780220    7.18355107721676
