   95
 energy: -150.682784202938 gnorm: 0.000280964681 xtb: 6.4.1 (1a32961)
N        -0.86312913909024   -2.14957470898498   -0.32628879312738
C        -2.13759781927577   -1.76218741630816   -0.50943786200843
C        -3.00742207022769   -2.50693592738073   -1.31597084924795
C        -2.54971886409741   -3.64270491757381   -1.94872522344332
C        -1.22259939730662   -4.01954765253307   -1.76390990552364
C        -0.42782925720009   -3.24362337946799   -0.94386454390860
H         0.60586812700964   -3.50048869889883   -0.76065034319980
H        -0.82207105600088   -4.89951764109944   -2.24018127144308
H        -4.03436061452135   -2.20633438772089   -1.44151266286244
C        -2.54765895596743   -0.54111359205639    0.17687931335844
N        -1.64752221407182    0.01121683053891    1.01745301713133
C        -1.98206326021666    1.12371590865017    1.66812652710447
C        -3.20445267737212    1.75021098732653    1.52797409145218
C        -4.13656911592660    1.20226610757904    0.65176869667864
C        -3.79972735460216    0.05072383427686   -0.02807307687737
H        -4.50222963262649   -0.38042710916802   -0.72149486719459
H        -3.42319803479454    2.64529054141890    2.08698713256179
H        -1.21940379447931    1.52233483994037    2.31880530004914
Ir        0.42150000000001   -0.81649999999991    0.91329999999999
B         0.42848374877925    0.49216855946382   -0.69868960179072
O         0.00218490399147    0.05476347290170   -1.94079324019250
C        -0.20693251910138    1.17309665212670   -2.81103162850799
C         0.29586322994571    0.83064996801443   -4.21161115792422
H         1.32165846706971    0.47896119925754   -4.17879573750729
H         0.22756934308565    1.70173945472265   -4.85802983765927
H        -0.32171672626829    0.03693788276992   -4.62557321191283
C        -1.72152905457974    1.42011716887668   -2.86855457401333
H        -1.96074898451044    2.23087295405130   -3.55004083260968
H        -2.20898163664892    0.51064669148898   -3.21384893702565
H        -2.10219090832451    1.65101668209275   -1.87594252240195
C         0.56819122934106    2.32450144321948   -2.08575264004129
O         0.64736959061919    1.84769598508185   -0.73503065665075
C         2.00748656836710    2.47695681078859   -2.59235296756468
H         2.53186691546693    1.53334246711287   -2.46454655493528
H         2.03121125774763    2.78880929486443   -3.63239466561916
H         2.51683195618701    3.22441171066978   -1.98872379885843
C        -0.12485951563186    3.68588321297966   -2.11144854812721
H        -1.08060156881030    3.65208907250714   -1.59804151861531
H         0.50401733862749    4.41305354101721   -1.60367413708817
H        -0.27452075151462    4.00868056947451   -3.13842430154156
B         1.48620862911423    0.69429123507748    1.89932349862010
O         2.84228697338030    0.83868403254507    2.02776421527834
C         3.15386037085972    2.18951688008769    2.39345495356379
C         4.33995172751249    2.21438596836999    3.35492195286254
H         4.16522287783731    1.57245623058103    4.21144025331729
H         5.22100072064712    1.84933611388970    2.83383244556554
H         4.52597085938570    3.23061349809814    3.69217852248964
C         3.53740767473925    2.90155637278382    1.09070283558639
H         3.80921212301772    3.93855158727337    1.26518525658448
H         4.38192466677508    2.37571075438300    0.65281071863397
H         2.70717475331811    2.83053534542758    0.39379253429383
C         1.80084409533501    2.70933871036909    2.99084199274243
O         0.84592112349135    1.77700927074870    2.46429719356652
C         1.40475643072150    4.11807369777849    2.54927848022500
H         1.22875296507730    4.14148639458445    1.47906721471534
H         0.48483529563419    4.40395139690221    3.05330015230549
H         2.18348827107155    4.82840706013255    2.81171946612594
C         1.73833593138364    2.62515047331926    4.52070197497193
H         1.99834439851020    1.62603772338760    4.85670883311232
H         2.41071913850972    3.34708356552057    4.97385330543190
H         0.72150928294780    2.83781910068320    4.84293637448663
B         2.27819999999968   -1.33090000000029    0.17410000000174
O         2.67537673664794   -2.65382436203919    0.10180145244776
C         3.95313284146837   -2.76672787025879   -0.53754812265696
C         4.98553500390684   -3.05207472550054    0.55837260115086
H         4.96758284543856   -2.25536838048852    1.29538463997353
H         4.71061678761442   -3.97507776915108    1.06267548820789
H         5.98209355696720   -3.15766738540340    0.14125782037362
C         3.91946676324437   -3.94695198784716   -1.51004275084746
H         3.76198123557094   -4.86059861162273   -0.94252913646170
H         4.86433288637145   -4.02307388058078   -2.04048661190486
H         3.10855985687234   -3.84530250168907   -2.22387586013151
C         4.13215516880386   -1.35682926664199   -1.20474747131343
O         3.15765305244689   -0.54941501122787   -0.52908147753321
C         5.51507383230731   -0.73185715222869   -1.02937765555139
H         6.27605645037827   -1.36546685175669   -1.47647897899248
H         5.52788943309221    0.23708354386590   -1.52186207046084
H         5.73399797529125   -0.57912963297829    0.02155282878497
C         3.76278266252453   -1.34800226394001   -2.69547970465017
H         2.73178478333824   -1.66946993365109   -2.82191809205088
H         3.84782905363627   -0.33028440693530   -3.06936415673994
H         4.42751857955581   -1.98581725795434   -3.26959518969587
H        -3.20941353016996   -4.22671291483959   -2.57215456268346
H        -5.09939647442689    1.66683372552140    0.50285388898172
C         0.23590000000072   -1.68139999999921    2.96029999999855
C        -1.03785000399472   -1.85644035174924    3.48263986367281
C         1.04899891071221   -1.78370624113342    4.11419530242114
N        -0.92810630328764   -1.99939364573172    4.82074695969456
H        -1.99148046632380   -1.88710594475620    2.99790428027312
C         2.52464024977774   -1.75709567265122    4.24038461344944
N         0.32962426413178   -1.96011456483076    5.22325789997576
H        -1.65696800260703   -2.12539134527036    5.50777143131320
F         3.18087793971005   -1.91581139839669    3.08765395919699
F         2.99878073976773   -0.61828400195481    4.79465949441384
F         2.98456476017200   -2.74256668878905    5.05308718769833
