   98
 energy: -144.449622263630 gnorm: 0.000181506467 xtb: 6.4.1 (1a32961)
N        -0.94047138959785   -2.02309018365572   -0.37982539044558
C        -2.18039391674827   -1.52565971251369   -0.54392466250572
C        -3.02164356488572   -2.00565198306489   -1.55429365049622
C        -2.58201986612958   -3.00694980897120   -2.39310107742641
C        -1.30102496825148   -3.51864917573385   -2.20588898587131
C        -0.52754420266562   -2.99172886345294   -1.19236773039046
H         0.47310579701045   -3.35659669607810   -1.00870688652509
H        -0.91769653405406   -4.30445440763396   -2.83608323703129
H        -4.00675449583927   -1.59144633894624   -1.69190364882414
C        -2.57451637159724   -0.46049022077500    0.37309596467604
N        -1.61675807778234    0.00422085164903    1.20230852238825
C        -1.92463815398611    0.97736064780973    2.05583677837144
C        -3.18154317287020    1.54181160439720    2.14376658966600
C        -4.18183772813448    1.07111960037184    1.29831190654813
C        -3.87127918590307    0.06537496327897    0.40757247495010
H        -4.63521309057680   -0.31720213932518   -0.24848246866988
H        -3.37785537148109    2.32282781810824    2.86007149308260
H        -1.11289493733375    1.31240628619700    2.68301250143181
Ir        0.42149999999985   -0.81649999999997    0.91330000000018
B         0.37475385732115    0.59851589385228   -0.61714704384462
O        -0.32102554140782    0.32651929293742   -1.78360731378758
C        -0.45422388714257    1.51996128530036   -2.56243034204854
C        -0.28891721992826    1.19097643131778   -4.04371595237447
H         0.62229096318469    0.62712112370562   -4.21331212648076
H        -0.26717494248546    2.10615126159490   -4.62967060470935
H        -1.13015888750248    0.58415877917253   -4.37034372353251
C        -1.87194276579978    2.05769828677243   -2.31779996878718
H        -2.06453743586011    2.94449874399992   -2.91420612322666
H        -2.58872013748150    1.28494894006406   -2.58908687905664
H        -2.00714443116899    2.28760925995500   -1.26262445491323
C         0.65407051261456    2.44296056610795   -1.95934618145615
O         0.82958723356579    1.89608744433220   -0.64534997557069
C         1.99863043009846    2.29294029003559   -2.68138144469425
H         2.28809229545361    1.24474941086442   -2.68040745382512
H         1.94980549989357    2.67647457247932   -3.69643747732760
H         2.75411605758443    2.84567088662929   -2.12797729360940
C         0.28389195460622    3.92168773126979   -1.86650663622559
H        -0.56031299715339    4.07551241168241   -1.20157112775511
H         1.13154504737572    4.47677694079854   -1.47201144201817
H         0.04252929215498    4.30710857264028   -2.85390399928119
B         1.57410738063491    0.64782637665026    1.85418026250916
O         2.93822683595925    0.79943647384804    1.85285365124393
C         3.28808876658196    2.08750708988601    2.38185653511653
C         4.55080878061582    1.97529887833586    3.23411203751628
H         4.44829834857792    1.19998971778921    3.98593700523044
H         5.39105653647809    1.71722451539506    2.59466282777577
H         4.75894924958104    2.92603808323326    3.71745163454332
C         3.56120895333257    2.99340853590411    1.17530869418796
H         3.82026811264131    4.00197150636135    1.48341800066859
H         4.38758460099274    2.57330418787898    0.60652908202403
H         2.68362993484862    2.99983343932160    0.53409413079713
C         1.99558810133647    2.49810643629038    3.16612824638098
O         0.98956918101597    1.66757290489721    2.57028607211083
C         1.59225407838711    3.96392569714787    3.01833422748483
H         1.35133801677446    4.19074583244271    1.98522242521199
H         0.70975957213973    4.15352391152037    3.62444853528003
H         2.39614759241734    4.61069700550416    3.35917744854757
C         2.05694157700949    2.13593475609618    4.65538310933136
H         2.29380546770264    1.08198820921428    4.77063273392999
H         2.79217370164014    2.74178203390368    5.17601296919287
H         1.07908071281036    2.30821095304544    5.09905845804482
B         2.27820000000006   -1.33090000000066    0.17410000000041
O         3.11523187608902   -2.28567852061896    0.70813221980429
C         4.39867722557680   -2.23791002555899    0.07102982057110
C         5.33711427190082   -1.50657631630909    1.03675337061497
H         4.90394635282181   -0.54176510289478    1.28418830988070
H         5.40663614821121   -2.08675792993050    1.95335894547265
H         6.33068646749059   -1.38808272592042    0.61584449899429
C         4.90924474097653   -3.66184592705832   -0.15018324721736
H         5.05271898002409   -4.13511871556733    0.81751546159481
H         5.85905416810201   -3.64099406653644   -0.67696798602426
H         4.19607933258757   -4.25597691240784   -0.71162760666127
C         4.10765638324479   -1.42443013591651   -1.24054340427102
O         2.84807117947931   -0.79630497823940   -0.95715306874256
C         5.13717321104570   -0.34360751001183   -1.56634769706428
H         6.12193225420646   -0.78392319126918   -1.69521697123682
H         4.84964369030152    0.15297196656387   -2.48966323965005
H         5.16473250350070    0.39965308759333   -0.77735131199125
C         3.90523620726097   -2.31188133811236   -2.47612789764999
H         3.14039360553160   -3.05860670179434   -2.28242980547776
H         3.56423807417011   -1.68836678931036   -3.29901867226049
H         4.83209809932621   -2.79914649891726   -2.76293169103680
H        -3.21849798937698   -3.38341323906555   -3.17928791381988
H        -5.17974232104112    1.48046404300591    1.33847013357819
C         0.23589999999881   -1.68140000000067    2.96030000000188
N        -1.02389702354758   -2.09505058557758    3.34140947090165
C         1.02485268509569   -1.60461504761540    4.08084507256990
C        -1.07487935076652   -2.23293623552729    4.69081045675468
H        -1.79833217924689   -2.26071317355347    2.72231398023411
C         0.22100211714046   -1.92663522012269    5.20424155407151
H         2.06516178327958   -1.34821509280866    4.09017211597284
N        -2.13074581599481   -2.59092361898823    5.40635422099033
C         0.39266913351732   -2.02294920296300    6.58258788075031
C        -1.92439827224361   -2.66782303368451    6.71429709118267
C        -0.70547127625513   -2.40071081624790    7.33586855020650
H         1.34577186356543   -1.81218140150621    7.04693223379358
H        -2.78786496861856   -2.96195138710350    7.29712381925566
H        -0.62915186964500   -2.49264054440872    8.40906905719880
