   98
 energy: -144.444263936319 gnorm: 0.000155624331 xtb: 6.4.1 (1a32961)
N        -0.90711676518552   -2.02457096345306   -0.37109488824710
C        -2.15542592518340   -1.54964831715475   -0.55016625801937
C        -3.03074431328689   -2.15241104627808   -1.46348453194695
C        -2.61369152288175   -3.23868143262835   -2.19988250508794
C        -1.31695701265745   -3.71294466549665   -2.01091188581947
C        -0.51477797684652   -3.07370659957722   -1.08996817833760
H         0.49522154384841   -3.41165564728491   -0.90516477711900
H        -0.94764676437637   -4.56050395985803   -2.56508179585570
H        -4.03130792305718   -1.77471840130298   -1.59562728816432
C        -2.52126334705749   -0.38930924633397    0.24926968408880
N        -1.58563569982651    0.06595105745574    1.11206191356320
C        -1.87741546727839    1.12333187906793    1.86841172082519
C        -3.08276762395735    1.79160276062317    1.81267551397063
C        -4.05146775032032    1.34459039680272    0.91641123735486
C        -3.76343014230592    0.24795236601166    0.13375037801354
H        -4.49860154248945   -0.11018157173384   -0.56765003099586
H        -3.26501534827239    2.64029999139260    2.45195528426770
H        -1.09175402084351    1.43964680228404    2.53734212473683
Ir        0.42150000000003   -0.81649999999994    0.91329999999999
B         0.42711580188672    0.60312134563845   -0.61196100747791
O        -0.16733708489226    0.29773689004517   -1.82270258421675
C        -0.25276855899046    1.47033452336768   -2.63845048256468
C         0.07012101746032    1.11212136325516   -4.08702977084119
H         1.00929407142547    0.57241716965310   -4.14748577536251
H         0.12501179377739    2.01290978533508   -4.69293316383489
H        -0.71587245891138    0.47149636120514   -4.47995194748621
C        -1.70152424193875    1.97224588033134   -2.55346198288242
H        -1.85461578928340    2.83885065157983   -3.18974605552088
H        -2.36531909264573    1.17256698091990   -2.87666509000607
H        -1.95190661811928    2.22285542877608   -1.52443759087651
C         0.76644755307107    2.43810073509574   -1.95197644462636
O         0.84238530920159    1.91575639840405   -0.61857507369088
C         2.17441348622114    2.32494865985419   -2.54914964953707
H         2.49973281612392    1.28876185738455   -2.49581227126000
H         2.20241949980398    2.68403394410499   -3.57391541676238
H         2.85747070063652    2.91899973249873   -1.94644667131284
C         0.34204064597775    3.90495378195302   -1.91694891775683
H        -0.56779216934303    4.03975031103230   -1.34018709710774
H         1.12903044320435    4.49205165893010   -1.44962800694729
H         0.18706514290655    4.27053491000755   -2.92893106867531
B         1.57432534622928    0.62724408137607    1.89361177347854
O         2.93901312579386    0.78561326454881    1.86307711941845
C         3.30922463430941    2.03808125694805    2.45427155810682
C         4.56930773197153    1.85736525268800    3.29950459913808
H         4.44202106553599    1.05620257926985    4.02018951807226
H         5.40117509454461    1.59981558484682    2.64881679753931
H         4.80623593264202    2.78152850548011    3.81971325245554
C         3.60210928745658    2.99550467264125    1.29235651951842
H         3.87184157880328    3.98564519434385    1.64727958062436
H         4.42724962323086    2.59126004494568    0.71012490362740
H         2.72943539838803    3.04388704998181    0.64606021936689
C         2.02632273491029    2.43422445705418    3.26327604879005
O         1.01024739793982    1.61631792789972    2.66974365469471
C         1.62002734987252    3.90276688256232    3.14326329878535
H         1.37763379302200    4.15006713931059    2.11509167346414
H         0.73745620184262    4.07785633040910    3.75363700147337
H         2.42217597303248    4.54467021536625    3.49708917128978
C         2.10413234491799    2.05440129374684    4.74747877284513
H         2.33469985159507    0.99741716370107    4.85309215166469
H         2.85142690087868    2.64731160101018    5.26552740168583
H         1.13392842694797    2.23293796219977    5.20525192545149
B         2.27820000000056   -1.33089999999967    0.17410000000043
O         3.11905522973639   -2.27994772177934    0.71869246245104
C         4.39501556462091   -2.25458520314661    0.06773602414499
C         5.35101516656171   -1.50765717411617    1.00457246017782
H         4.93201338068010   -0.53118661210708    1.23106669001502
H         5.42806037376529   -2.06537468983986    1.93494909841600
H         6.34093182494051   -1.40939350258819    0.56998815962111
C         4.89452931946218   -3.68632657038277   -0.12675484103012
H         5.04939329605998   -4.13746741397080    0.84983614866759
H         5.83668480189886   -3.68366582604406   -0.66765230735610
H         4.16963599027400   -4.28901369186422   -0.66356246690410
C         4.09335935859991   -1.46878780443144   -1.25717557130218
O         2.84820653923393   -0.81543437478392   -0.96757200350881
C         5.13719851756432   -0.41629973355488   -1.62773598788510
H         6.11355405230050   -0.87776689874130   -1.74691009210592
H         4.85395417547463    0.05218680580111   -2.56703119947049
H         5.18379676566947    0.35409994723821   -0.86583810600542
C         3.85428583365004   -2.38483238708157   -2.46517740147289
H         3.08135871867406   -3.11367838176136   -2.23753219549436
H         3.50653686065057   -1.77792518499860   -3.29773221406212
H         4.76784650577375   -2.89429546203496   -2.75627208220943
H        -3.27781134091193   -3.71092300843443   -2.90774604269668
H        -5.00493348882421    1.84430979190024    0.83479061069232
C         0.23589999999933   -1.68140000000180    2.96029999999924
C        -0.99307888085258   -1.90372195430277    3.52196927097452
C         1.16058873993009   -1.70561011942523    4.04847707885448
N        -0.89994787172969   -2.01488753374411    4.88951222216517
H        -1.95379272275391   -1.99355977095389    3.05065491689888
C         2.54823438909816   -1.60910147948017    4.15583437728062
C         0.41091280208276   -1.89605410425001    5.24212609792244
H        -1.67029316012859   -2.14824109465913    5.52212025680985
C         3.08593934277452   -1.68512733809755    5.42392771511827
H         3.15042547656451   -1.47736780917545    3.27209940557323
C         1.06418894191945   -1.94750798965526    6.46730629953509
N         2.37470252851396   -1.84055028239779    6.54688193053614
H         4.15501486606766   -1.61741615621072    5.58398486703641
H         0.53743746632962   -2.07945495787447    7.40460218599516
