  104
 energy: -150.781421911367 gnorm: 0.000313150706 xtb: 6.4.1 (1a32961)
N        -0.93601928546964   -2.02745445719474   -0.36744390462076
C        -2.19495093605409   -1.56697257686974   -0.50650036853851
C        -3.09510908356306   -2.19018770796255   -1.38262642945521
C        -2.68805632174525   -3.27361707008179   -2.12819109498955
C        -1.37803032281101   -3.72832182903008   -1.98441921985110
C        -0.55393871902035   -3.07455415351126   -1.09333439619037
H         0.46588301780811   -3.39795612627795   -0.93826711341901
H        -1.01568417382594   -4.57197323040531   -2.54907966205213
H        -4.10656903934728   -1.83016636577795   -1.47655702560560
C        -2.54399251202254   -0.40214909866288    0.29233121895829
N        -1.59456192653283    0.05166460585568    1.14275398423709
C        -1.87347762952945    1.11234865335261    1.90055224082307
C        -3.07647198151553    1.78395732584837    1.85872970642874
C        -4.05682698801520    1.34199803643343    0.97117364299127
C        -3.78204961542692    0.24481591378566    0.18536801111130
H        -4.52353269453801   -0.10708277114380   -0.51283117909019
H        -3.24997770623572    2.63093652469375    2.50284409694740
H        -1.07903396782277    1.42399388282657    2.56153465206802
Ir        0.42149999999980   -0.81650000000007    0.91330000000029
B         0.35287316388152    0.64806962779754   -0.57218179664561
O        -0.20493836478414    0.33496252694440   -1.79842677650047
C        -0.35033231646380    1.51912945214662   -2.59034406186596
C         0.01151624279513    1.21429525334273   -4.04186180789681
H         0.98019893868575    0.72931940411842   -4.10064937141251
H         0.02382529895067    2.13143242770402   -4.62528838870602
H        -0.73194146233180    0.54058334922013   -4.46118746770342
C        -1.82658942790648    1.93514936911607   -2.51435344623471
H        -2.02267525169608    2.80065784264085   -3.14042564635672
H        -2.44022313865126    1.10349955136241   -2.85537530591108
H        -2.10174185432854    2.15652938537587   -1.48499178081930
C         0.60058334500099    2.52829099385452   -1.86825531727205
O         0.67798398132561    1.98664973265794   -0.54235761185134
C         2.02386043718001    2.49911186518037   -2.43843389253707
H         2.40169460154264    1.48032499770390   -2.39397495867648
H         2.05141423312697    2.87557105806869   -3.45692302527333
H         2.66230735790391    3.11861987263303   -1.81336271022534
C         0.09807059739519    3.96957423349786   -1.81825272371876
H        -0.82937042034990    4.04548860788472   -1.25904558457986
H         0.84316446677727    4.58865887286953   -1.32463518474341
H        -0.05565701522594    4.34384389761328   -2.82727548226206
B         1.58517374087614    0.62755323928099    1.87313298320539
O         2.92576343860079    0.89191391646448    1.73491982863673
C         3.25773921647377    2.10924352579999    2.41983616864297
C         4.63119120020260    1.98133200967121    3.07600184102767
H         4.69269897894011    1.07784054620276    3.67272841180551
H         5.39281936428158    1.92959398564433    2.30207217549403
H         4.82766732145363    2.84828794108458    3.70130121566272
C         3.29578812071213    3.21663497325044    1.36007714037751
H         3.53703525250137    4.18019662278413    1.79969768774557
H         4.05273904481894    2.96183997945230    0.62188359437865
H         2.33478446204263    3.25544195931700    0.85336950947329
C         2.06238281047339    2.27067137098082    3.41491538259025
O         1.02872038405947    1.50190369337770    2.78448379741894
C         1.58141080170158    3.70419681787672    3.62650067765933
H         1.20715515554369    4.12642903041404    2.70001353823225
H         0.77284173270811    3.70437294933866    4.35351013064985
H         2.39409253876317    4.31819041047913    4.00557762738948
C         2.33896842942628    1.61131180703019    4.77093043373265
H         2.63718314074847    0.58042208649563    4.60221490772457
H         3.10378209882960    2.14864480417884    5.32321052915303
H         1.41829790756034    1.60388456847429    5.35005563621400
B         2.27820000000025   -1.33090000000052    0.17409999999991
O         3.12978904759216   -2.29699946238607    0.66184476854186
C         4.40995879232385   -2.19866703815418    0.02403809273087
C         5.33208272735025   -1.47118615960760    1.00828973787607
H         4.88002664700974   -0.51963131664730    1.27242461183084
H         5.40874126422947   -2.06978658781921    1.91220088088471
H         6.32440440983217   -1.32576195252354    0.59266739340265
C         4.95674754765016   -3.60115790278778   -0.24242798721845
H         5.12066307784240   -4.09892241129989    0.70964564464213
H         5.90118350543765   -3.53845161722019   -0.77579180203674
H         4.25523164662013   -4.19724902817922   -0.81648937563910
C         4.09538270103076   -1.35237439012227   -1.25995850061178
O         2.83356354428124   -0.74701557979036   -0.94254479898290
C         5.11043152796330   -0.25188682631129   -1.56589277711507
H         6.10199091480236   -0.67573572402622   -1.69825393264154
H         4.81988707335396    0.25508886834031   -2.48276328141529
H         5.12274938234691    0.47848738941126   -0.76438326482349
C         3.88675598983280   -2.20876601657466   -2.51643853947182
H         3.13489219416873   -2.97074576721236   -2.33066080176269
H         3.52265632478606   -1.56842556027703   -3.31625452408699
H         4.81577005029789   -2.67474314670298   -2.83062790155368
H        -3.36995039536499   -3.75991853133938   -2.80939207326604
H        -5.00848607837081    1.84677927709722    0.89937631841531
C         0.23590000000121   -1.68139999999873    2.96030000000052
C        -1.06434933024493   -2.10235587693280    3.30606151946795
N         1.18665304312413   -1.52705277880284    3.86407725769787
C        -1.42126327177597   -2.29287931145866    4.62529389380420
H        -1.79437661098372   -2.28580069484829    2.53107530190035
C         0.84607556278544   -1.72083082885348    5.13144514864962
C        -0.44153557556815   -2.09710713983367    5.59723948030979
H        -2.42346391438056   -2.60312613948123    4.89119201959750
N         1.66387926380842   -1.62201555365019    6.21062213000873
C        -0.35073741629916   -2.21956413255768    7.01850710014192
C         0.94199375159705   -1.92447869965191    7.34017560611855
H         2.64272472388515   -1.39620416110230    6.18004096573523
C        -1.47742852029399   -2.60557553292383    7.92460292609640
H         1.41741608754476   -1.90506641664541    8.30069712862050
C        -1.06665265121378   -2.71984028784237    9.38830554666754
H        -1.88583676234416   -3.56332772933078    7.58565065152759
H        -2.27779309248461   -1.86437764299101    7.82748727740217
H        -0.28783764935749   -3.46946057246660    9.50701927184376
H        -1.92126150289565   -3.01132701970853    9.99502698591986
H        -0.69295295568245   -1.76691880393017    9.75522079855643
