  113
 energy: -167.435619298758 gnorm: 0.000427707253 xtb: 6.4.1 (1a32961)
N        -0.90695767042949   -1.99433026747035   -0.42637858851606
C        -2.17412716225458   -1.55309512248658   -0.52914726176332
C        -3.04420073980961   -2.08223705635084   -1.49052492877782
C        -2.60412007219159   -3.06892864558740   -2.34564711180108
C        -1.29085207038036   -3.51497791708438   -2.22726224565364
C        -0.49148915105781   -2.94453647293545   -1.25834382908537
H         0.53560767868787   -3.25526720874927   -1.13312947701533
H        -0.90324926874324   -4.28506863915295   -2.87387583999099
H        -4.05494239780443   -1.71919381084879   -1.57654615845459
C        -2.57089015704657   -0.49599960355656    0.39472869573498
N        -1.60833678898245   -0.00743116775997    1.20357034039397
C        -1.92239864509106    0.96364192757756    2.05786424631954
C        -3.18877161582553    1.50120920582242    2.16838226321604
C        -4.19492686293517    1.00548874740632    1.34403060091590
C        -3.87801577881463    0.00372675138755    0.45200757920744
H        -4.64566992482773   -0.39492902838012   -0.18999936544717
H        -3.38764773641136    2.28062861857444    2.88590555832326
H        -1.10895146623606    1.31714001244331    2.67274124803393
Ir        0.42149999999984   -0.81650000000954    0.91329999999340
B         0.32763258500995    0.68785293242963   -0.54230622358890
O        -0.47729719786790    0.51933961661859   -1.65718880547975
C        -0.64864077004473    1.77177751243627   -2.32974752569021
C        -0.64241448373994    1.55630783598891   -3.84088705717489
H         0.22931677666876    0.98785161545781   -4.14751825158302
H        -0.65256218157700    2.51465132260902   -4.35396017671415
H        -1.53051595018894    0.99653545973791   -4.12482157246627
C        -2.01672533226586    2.32516344059307   -1.90420704897996
H        -2.24052296525147    3.25660231070372   -2.41570595508520
H        -2.78184063968148    1.59190861328911   -2.15223200740214
H        -2.03830106200084    2.48318013441543   -0.82760083260096
C         0.54145254315757    2.61922190599692   -1.77460462552970
O         0.82464129687374    1.97047298545164   -0.52699294684287
C         1.80409912829106    2.49239230607522   -2.63516384859898
H         2.04931930270243    1.44060941995556   -2.76128247490102
H         1.67414823381825    2.97123860018535   -3.60130277179269
H         2.63006638947589    2.96680484554823   -2.11054305126030
C         0.22924999797208    4.09543019480911   -1.53825977578519
H        -0.52811721992133    4.21878013590653   -0.77009079292527
H         1.13242087751739    4.60426302892792   -1.20961175144080
H        -0.11331899510220    4.55516254879472   -2.46167680090878
B         1.54641511124241    0.66502848359619    1.87236005374227
O         2.88079463134927    0.94241266705681    1.74003015397277
C         3.21696457794577    2.16105165937497    2.41750946872481
C         4.52511760118139    1.97009422056393    3.18513465282711
H         4.46471125207541    1.11465105381289    3.84940043720228
H         5.32772715099334    1.79042903749959    2.47485123298775
H         4.75798811985523    2.86329387300085    3.75818200410119
C         3.41623451213554    3.22494366074453    1.33117218630062
H         3.62712438899286    4.19943447295460    1.76081190467630
H         4.25381053392219    2.92691930684186    0.70470471861254
H         2.52799661485208    3.26533428727256    0.70681583758160
C         1.95771014802740    2.42339852546739    3.31798050976918
O         0.96899121701845    1.55246863558011    2.75279447713434
C         1.42941168230937    3.85759802385912    3.28299964466556
H         1.12267330391699    4.12914650139091    2.27828975841887
H         0.56322444928694    3.93032794555635    3.93632819613903
H         2.19039129585431    4.54841362831384    3.63476430740340
C         2.15202193492771    1.99823227285961    4.77888566012995
H         2.46817758761362    0.95995356513638    4.82784821602221
H         2.88064509314812    2.63035516064491    5.27681198418397
H         1.19914558706453    2.08266009974747    5.29678303827148
B         2.27819999999635   -1.33089999998101    0.17410000001865
O         3.30334150124317   -2.00785425870779    0.79152179089239
C         4.47680288465758   -1.99950103104128   -0.03324258004648
C         5.41110899343760   -0.92938485236265    0.54079412546434
H         4.87633136328011    0.01473589359578    0.59228343246512
H         5.68357476777498   -1.21559459941593    1.55373063105627
H         6.31403499789091   -0.82907776409276   -0.05339026127775
C         5.16087854978911   -3.36405894927313    0.04330777923990
H         5.51022015103104   -3.52464892205894    1.05967343029267
H         6.01208747475338   -3.39278688805351   -0.63105503017559
H         4.47290121113583   -4.16520961217734   -0.20486968154272
C         3.90688230619932   -1.62103686547251   -1.44588067089561
O         2.62499681756683   -1.05635406706963   -1.13117372250219
C         4.72889462640304   -0.58960386523682   -2.21708753267035
H         5.73959390141799   -0.95385909109456   -2.37838737686565
H         4.26106835383430   -0.41486836838692   -3.18278765858801
H         4.75786091413101    0.35191558045056   -1.67951388889695
C         3.65920660428567   -2.83847663622822   -2.34702094211111
H         3.05502138147547   -3.57648015886948   -1.82661517720417
H         3.11004852611284   -2.51173335612448   -3.22671714033068
H         4.59614348134497   -3.28837134433976   -2.66089376378948
H        -3.26405823992586   -3.48236817875908   -3.09302347888894
H        -5.20064597648369    1.39310254457599    1.40154876183420
C         0.23590000003028   -1.68140000000317    2.96029999998636
C        -1.03219102846836   -2.01447277599901    3.43481337888345
C         1.24494797792512   -1.71816142528434    3.93073818836801
C        -1.24764986304818   -2.26491206573729    4.78696542531951
H        -1.87852280610577   -2.09152583319039    2.76860855885046
C         0.91495447913770   -2.03682842912266    5.26959045882613
C         2.66701708109979   -1.55608294452042    3.88415937362304
N        -0.30294890461862   -2.28953588847826    5.71701592123994
H        -2.24333551716212   -2.48500022519847    5.15033754050605
N         2.09093624072479   -2.06612725717707    6.00504509375603
C         3.13774387413494   -1.76520971534126    5.13140948095122
H         3.21630257625274   -1.32747153675280    2.99424136650758
C         2.31580297417659   -2.43769657077142    7.32085419884199
H         4.13622007521434   -1.74925733481360    5.52252429018848
O         3.42953187630261   -2.40523280652969    7.79680454126373
O         1.20702887644458   -2.81838309578946    7.91977783916972
C         1.22460460646997   -3.31865470642920    9.29091718505297
C         1.72123044351372   -2.23301665707681   10.24463529332302
C        -0.23870585299861   -3.65711716200156    9.57082535456980
C         2.09306301382030   -4.57370670423414    9.37757144989578
H         1.12604461738871   -1.33083783147986   10.12295448747030
H         2.76285844724678   -1.99660129301956   10.04380649227581
H         1.63054802420378   -2.58314873106397   11.26847164373968
H        -0.85094944992591   -2.76711434758932    9.46083884986365
H        -0.34072459288937   -4.04492288382255   10.57950172223191
H        -0.58722947557640   -4.40108766879390    8.86060314018799
H         3.13320521581513   -4.33337967962847    9.17315598814327
H         1.75384334080889   -5.31119602191611    8.65334652231059
H         2.01941576789382   -4.99663298461819   10.37493813556484
