  113
 energy: -167.427645540898 gnorm: 0.000369586293 xtb: 6.4.1 (1a32961)
N        -0.91722438217112   -2.21446164744083   -0.25194679882090
C        -2.21581871945270   -1.87827949422822   -0.33647669842939
C        -3.14340605430000   -2.72812922626108   -0.95478000905165
C        -2.71572746444348   -3.91021945716278   -1.51873583047593
C        -1.36169589247573   -4.22996978952991   -1.45089871303707
C        -0.51423523194229   -3.35580192867395   -0.80074283703705
H         0.53949854773100   -3.57237551788890   -0.70041137860426
H        -0.98248564999890   -5.14184653052576   -1.88228188742924
H        -4.19005860259879   -2.47213493318667   -0.97752925167264
C        -2.59386580405713   -0.60358788959540    0.26027432033383
N        -1.67148380050508   -0.00411577461523    1.04301878481633
C        -1.98876320851279    1.15283418258143    1.62172747319540
C        -3.20793598830602    1.77778283710458    1.45971708139687
C        -4.15674448002894    1.18585070808653    0.62920414043785
C        -3.83964142501631   -0.01050560972483    0.02284200795063
H        -4.54717228112940   -0.47593962693076   -0.64366201738074
H        -3.41457179001101    2.70644669498565    1.96669468324702
H        -1.21561304761292    1.58125829669383    2.24048497518184
Ir        0.42150000000064   -0.81650000000023    0.91329999999869
B         0.27466664571664    0.54222096412959   -0.64943274120105
O        -0.12145184486603    0.06579016841080   -1.88423935494304
C        -0.40097436597779    1.15594594550021   -2.76959569028358
C         0.14653226196123    0.83423873562773   -4.15820756570875
H         1.19601694316853    0.56544997248201   -4.10405456874431
H         0.01962665349699    1.68755763351482   -4.81944022245038
H        -0.40079189385132   -0.01255099887647   -4.56614633333183
C        -1.92820885845022    1.29394904883701   -2.85224194881272
H        -2.21374805672376    2.06915604326093   -3.55720188373873
H        -2.34577114376765    0.34425467371273   -3.18063468053786
H        -2.34009396542437    1.52186671239308   -1.87151611389927
C         0.28046280404742    2.36528673975158   -2.04709250698162
O         0.35664021439806    1.91612317015040   -0.68677304163905
C         1.72208431739442    2.59061517303623   -2.51797709745116
H         2.28681622960874    1.67170863395104   -2.37919236936365
H         1.75455102349203    2.90847784113745   -3.55597780924182
H         2.17483054641028    3.35933699402983   -1.89677303264442
C        -0.49332224772199    3.68030907192794   -2.11641855989385
H        -1.45688093279093    3.59710523195266   -1.62300896778812
H         0.07825470496954    4.45582902460218   -1.61257854583700
H        -0.64097708100028    3.97088908458423   -3.15327577809620
B         1.47397012557491    0.70541331368179    1.86490216463536
O         2.76723457170979    1.14516217183365    1.73366806297358
C         2.89410356765751    2.43425221828623    2.35378778318538
C         4.27845677816914    2.59768942184906    2.97257577285834
H         4.48498995865368    1.80759853601732    3.68495710525196
H         5.02590433233639    2.55211390530133    2.18527378112168
H         4.34808930655002    3.56061039677537    3.47228109170098
C         2.71344573550624    3.47540591361000    1.24230692381939
H         2.78994079878168    4.48767113854783    1.62863834527854
H         3.49011570888818    3.31671004912700    0.49833809836005
H         1.75197135202334    3.31887856198513    0.75966829580340
C         1.70749079026267    2.43295631077079    3.36983400091054
O         0.79800387496377    1.50181871353373    2.76990683607262
C         1.01597534372022    3.78078869669553    3.56030300525940
H         0.56581508036963    4.11743201351607    2.63224840091884
H         0.23108014335679    3.67693812138033    4.30577808186866
H         1.73232357489809    4.52078549500051    3.90725467723260
C         2.09899019874189    1.85602442469716    4.73602668067047
H         2.56259206708528    0.88195877833488    4.59860553683278
H         2.76803370201818    2.52457408525069    5.27033149080020
H         1.19601252867692    1.71323324720092    5.32665816814825
B         2.27820000000222   -1.33089999999977    0.17409999999840
O         2.96401224177009   -2.52078133234857    0.33401123390913
C         3.95853718050605   -2.65812447877282   -0.69491709208446
C         5.23252071719895   -3.27038798793542   -0.11920894603912
H         5.60794641248724   -2.68320031122391    0.70964535815326
H         5.01178285062659   -4.27169084862348    0.24105983591993
H         5.99178885269800   -3.33441192090057   -0.89385039196641
C         3.37937969510776   -3.61728946462151   -1.74528630189853
H         3.13468771682575   -4.55797706953578   -1.25723032403898
H         4.09675413674665   -3.80866502945420   -2.53724238965839
H         2.46857523797605   -3.20022836452394   -2.16717169794899
C         4.10909737417090   -1.19402528794858   -1.23136280657377
O         2.88285861090220   -0.58254628007175   -0.80733940758827
C         5.25137274148815   -0.42084662512894   -0.56441308688319
H         6.21860007947322   -0.82710722258272   -0.84442988629276
H         5.19312543899793    0.61644629986173   -0.88350227863899
H         5.12213256213281   -0.44394422828963    0.51265727121006
C         4.23995558005315   -1.07588729989976   -2.75015501632586
H         3.34409993791185   -1.43261805803348   -3.24761891695575
H         4.37873955894936   -0.03002920631174   -3.01174477823163
H         5.10057283472941   -1.63997286816161   -3.09868246468197
H        -3.41772417738759   -4.57571163490837   -1.99783895526725
H        -5.11527688610085    1.65245091726222    0.45932423223488
C         0.23589999998779   -1.68139999999844    2.96030000000519
C        -1.08543146268945   -1.98306843305613    3.33948444495936
N         1.21246276264121   -1.57727396789268    3.85205644426189
C        -1.43816126483197   -2.05983039838839    4.67202670684344
H        -1.83837653891165   -2.15158451622720    2.58487951130651
C         0.88062250249828   -1.68416347388879    5.12338266863692
C        -0.42821146978735   -1.89382343674363    5.61667929348443
H        -2.45719546794276   -2.25930046753091    4.97351323541025
N         1.73636813059281   -1.63518850898313    6.21631851727831
C        -0.33752857549750   -1.94294089464724    7.04262035569970
C         3.12464449254974   -1.59840621595346    6.23368237654528
C         0.96660023041674   -1.79067995379561    7.36466428143536
H        -1.15163560455105   -2.08218622791044    7.72586872248664
O         3.74644986679870   -1.71100383684150    7.26678043025011
O         3.60110164840355   -1.43875886509532    5.02133876536456
H         1.45580269177310   -1.78149922123447    8.31872535359148
C         5.02445237666093   -1.51733892784279    4.72253978836474
C         5.55597559546937   -2.90142458845389    5.09399782184906
C         5.06673729253238   -1.30850609744593    3.21037517975117
C         5.79208140301754   -0.42333309577770    5.46301715528482
H         4.96130555446835   -3.66966398502136    4.60528084496408
H         5.51176770858515   -3.05137262467781    6.17016421912203
H         6.58804288432387   -2.99126869942735    4.76880972986017
H         4.50554157878080   -2.09806698741644    2.71838557712362
H         6.09734664589673   -1.30738759142582    2.86839262484136
H         4.58688560047058   -0.37091341316668    2.94418623894733
H         5.75456078716036   -0.59107299492629    6.53642039762118
H         5.35977973993625    0.55066591913474    5.24820524137103
H         6.82876983575861   -0.42731845669861    5.14014043826431
