   95
 energy: -144.535605159420 gnorm: 0.000169433269 xtb: 6.4.1 (1a32961)
N        -0.94368519133925   -2.03250282445555   -0.35463534449668
C        -2.18704610412620   -1.54608463179942   -0.51696020368403
C        -3.05557884292684   -2.09560136442758   -1.46780753102373
C        -2.63629496964069   -3.14894324426708   -2.25167231019002
C        -1.34787913414415   -3.64316692008820   -2.07023484100261
C        -0.54946181534411   -3.05030677237834   -1.11372078468693
H         0.45648631724033   -3.40179155880332   -0.93366009871600
H        -0.97909826737393   -4.46730411748799   -2.65879058478898
H        -4.04917577159748   -1.70035771934284   -1.59947075182230
C        -2.55966531796521   -0.42297839848072    0.33860111921430
N        -1.60428344515406    0.04855114785006    1.16522029914335
C        -1.89726842526170    1.06953840933455    1.96531881998968
C        -3.13381664144261    1.68327078642591    1.99543708236007
C        -4.12929967367800    1.21204751619140    1.14528019217334
C        -3.83514392110958    0.15327862765014    0.31233232676452
H        -4.59554949044253   -0.22544551175994   -0.34997825792157
H        -3.31833567418156    2.50362465417611    2.66990775294375
H        -1.08941338850285    1.40477191028406    2.59703294385784
Ir        0.42149999999999   -0.81649999999996    0.91329999999994
B         0.40040396099057    0.58319539196191   -0.63124694818073
O        -0.23684438948037    0.28406076596495   -1.82184644116504
C        -0.32385092012865    1.45736561440033   -2.63813983531341
C        -0.07004856002727    1.08958332303819   -4.09765561144635
H         0.85116121933838    0.52524572908016   -4.19582610678810
H        -0.01566105817699    1.98875413246770   -4.70588942262412
H        -0.88836444613602    0.47082038938859   -4.45814095534368
C        -1.75332493413675    1.99844412138781   -2.49217714042343
H        -1.90999385789568    2.86923147049948   -3.12165821247481
H        -2.45191231049045    1.21742297549434   -2.78579435071535
H        -1.95145570025900    2.25479924944695   -1.45326943961603
C         0.74768812844600    2.39789656360793   -1.99576840511890
O         0.85155818656295    1.88206951630648   -0.66123167000568
C         2.13098953721285    2.23472285528536   -2.63732480098183
H         2.42323210425739    1.18859961732058   -2.58794466529761
H         2.13816356328123    2.58841260618208   -3.66425764187032
H         2.85184659393040    2.80788507337973   -2.05921654745008
C         0.37087718052431    3.87742280763331   -1.95863442260620
H        -0.51154121783729    4.04500890638083   -1.34903138218211
H         1.19303978714393    4.44322351133927   -1.52718261655309
H         0.18855582805582    4.23970653766544   -2.96718609437102
B         1.57862890477516    0.64588156667272    1.85131708737528
O         2.94563307091333    0.77863749029218    1.86409834089736
C         3.30941684190023    2.05707687044311    2.40704253931566
C         4.56256794573715    1.91869132349092    3.26959066615840
H         4.44102235334207    1.14209026001089    4.01721459950144
H         5.40379644377780    1.65004450897235    2.63585346590640
H         4.78281072770599    2.86335589760801    3.75933057047669
C         3.60611534575592    2.96816226817807    1.21026197834521
H         3.87554249896565    3.97093281699359    1.52807795477011
H         4.43213550994435    2.54140617605416    0.64597552192949
H         2.73460163261270    2.99119528983958    0.56109011252130
C         2.01614224124436    2.47992517931866    3.18358373535424
O         1.00445430694722    1.66361799486064    2.57714249129212
C         1.63035827907768    3.95062840943004    3.03818700103420
H         1.40316643137460    4.18539325804022    2.00376403913601
H         0.74292960751052    4.14594201199782    3.63519670556761
H         2.43665837937072    4.58755788041138    3.39163782332022
C         2.06128741735432    2.11301187320486    4.67229571391978
H         2.29190440053759    1.05804290564242    4.78866131535786
H         2.79344362745074    2.71556242330101    5.20095624496464
H         1.07960519083302    2.28950135081226    5.10562389948487
B         2.27820000000039   -1.33089999999922    0.17410000000084
O         3.09342944920955   -2.29589645276762    0.72608232414717
C         4.38834658611240   -2.27067371728903    0.11196407311572
C         5.32310734998991   -1.56345492242472    1.09905967381983
H         4.90494430536951   -0.59148879951000    1.34391689682845
H         5.36502581880329   -2.15110958678796    2.01261028288978
H         6.32633922528940   -1.46206759672632    0.69731857349554
C         4.87357210974935   -3.70401595112247   -0.10603330905667
H         4.98603929647306   -4.18493478562688    0.86203020723440
H         5.83473086665880   -3.70149805995421   -0.61212378646084
H         4.16013372186341   -4.28004108720651   -0.68563871482000
C         4.13611292289669   -1.44614272400086   -1.20093777258733
O         2.87848587785014   -0.80203266997332   -0.94223408026532
C         5.18775869511809   -0.37807146296714   -1.49677760507273
H         6.16904643806557   -0.83167234285220   -1.60394227924171
H         4.93043502868314    0.12675314242128   -2.42442506075554
H         5.20644504872925    0.36089302576074   -0.70355303302817
C         3.94852930706939   -2.32370804800355   -2.44558841287194
H         3.16449273924659   -3.05604856567208   -2.27524609872168
H         3.64048587822025   -1.69020003302016   -3.27379382295362
H         4.87281389809821   -2.82744252869093   -2.71141932133195
H        -3.29514500123104   -3.57875771923135   -2.99079064389989
H        -5.11075224139068    1.66160218143578    1.13654699030779
C         0.23589999999899   -1.68140000000120    2.96029999999889
C        -1.05132040818292   -2.06741620329689    3.32781735693138
C         1.18303164261482   -1.52516078392687    3.97283205711095
C        -1.40377624752390   -2.19074521538829    4.66213799144618
H        -1.80558619164716   -2.27766340545707    2.58516211861106
C         0.83921277496290   -1.65344877655641    5.30577734743980
H         2.20260922430583   -1.30083718286562    3.70250782644474
Cl       -3.03176575332576   -2.63383251762994    5.07703166080957
C        -0.46478052998927   -1.97188294367218    5.65924039864120
H         1.57171162065372   -1.51448041905448    6.08566664440435
Cl       -0.90091632303389   -2.11491617668347    7.33265610237425
