   98
 energy: -155.869173416704 gnorm: 0.000824378612 xtb: 6.4.1 (1a32961)
N        -0.95058053096771   -1.87470491564195   -0.50460837848536
C        -2.13547133580048   -1.28072590409194   -0.72187886505961
C        -3.00701314959989   -1.75422613211489   -1.70866432958702
C        -2.64225280376377   -2.83638240066840   -2.48109185048626
C        -1.40495128836599   -3.42973030230218   -2.25540543809037
C        -0.60462336101093   -2.91074621588699   -1.25794719024846
H         0.35841383099891   -3.34685893173431   -1.03494596589532
H        -1.07741975621976   -4.27680513587169   -2.83545744250546
H        -3.96402845862393   -1.28548173516476   -1.86740131023728
C        -2.45055391191872   -0.13270089976643    0.12385867885178
N        -1.54850436814897    0.17780943461619    1.07720171898750
C        -1.80467094336079    1.19983128574218    1.89205222323009
C        -2.94048789105039    1.97750649185250    1.80466783666483
C        -3.86644985803682    1.68779791746750    0.80769102450014
C        -3.61545069191446    0.62447994734863   -0.03411925778163
H        -4.32098102925323    0.38689220636220   -0.81233854990092
H        -3.09935438133073    2.78797147497351    2.49708062093517
H        -1.05088204677935    1.39415746785933    2.64075933334195
Ir        0.42149999999987   -0.81649999999991    0.91329999999979
B         0.44245487316789    0.62677958412072   -0.59874402884181
O        -0.02067038964378    0.29967720535467   -1.85338549685509
C        -0.08094852075579    1.47080798555518   -2.67805089680675
C         0.41230141384271    1.12844860168785   -4.08123708515825
H         1.37577263086643    0.63208800649290   -4.03556140068763
H         0.49101481148574    2.03071480107153   -4.68203658472802
H        -0.29693522708647    0.45235278375480   -4.55288689689090
C        -1.55219987729070    1.90220203721581   -2.75115252153028
H        -1.67590522813362    2.75480351167799   -3.41211054761898
H        -2.14019406951696    1.06926682238388   -3.13151740645977
H        -1.92240472591807    2.15123447950860   -1.75862189382223
C         0.81051003757001    2.48445746252498   -1.88899867039572
O         0.76139095133110    1.96322785476458   -0.54982625819774
C         2.27665036598798    2.42980549808429   -2.33181745678708
H         2.63674367942217    1.40830986233131   -2.23658641774457
H         2.39350075536977    2.78531221217951   -3.35114798172931
H         2.86782007416126    3.05537490143286   -1.66863151996998
C         0.32008660087941    3.93006829615760   -1.90646242815484
H        -0.65336693985073    4.02481530564668   -1.43497248687228
H         1.02438335142008    4.55247134874638   -1.35984192779716
H         0.26154815547810    4.28722566882469   -2.93122627596896
B         1.60783096915472    0.65482107959370    1.82771443325132
O         2.85312024625795    1.10475357361276    1.49941628960416
C         3.20660207615844    2.27015223157009    2.26288379684524
C         4.57697502011406    2.04133672301709    2.90590629760492
H         4.59393768177842    1.12314428782107    3.48339345633216
H         5.32092396438835    1.95158281911977    2.11880769838659
H         4.84046297671789    2.88178073408432    3.54047729754668
C         3.31619564433678    3.43456693531515    1.27368522470382
H         3.53075247993051    4.36724891343217    1.78608246154904
H         4.12516403718914    3.21947930502288    0.57960785930085
H         2.39579693481057    3.51843477377339    0.70426087978317
C         2.01595875996968    2.41492717903746    3.28554366963095
O         1.10421264315671    1.37725347201818    2.88620348663203
C         1.26245206901621    3.74544720306620    3.20299622125250
H         0.84150209625646    3.88376718965409    2.21203537779652
H         0.44501946872810    3.72785661591621    3.92037032818588
H         1.91967395853103    4.57526435811170    3.44399094744880
C         2.40482807414932    2.16650945838659    4.74656772919670
H         2.90739758311096    1.21265377420550    4.86328757532340
H         3.05184039908027    2.96007742901328    5.10675540599090
H         1.49857465600804    2.15039492035910    5.34768199748480
B         2.27819999999900   -1.33090000000085    0.17410000000122
O         3.15696077808255   -2.23808492460303    0.71363139880915
C         4.38475444088866   -2.24291921973757   -0.03193928592391
C         5.37839292531446   -1.37942411146303    0.75000753006383
H         4.96252995267006   -0.38361780166051    0.87548529734072
H         5.50678205320592   -1.81094897300810    1.73923606425257
H         6.34011348967191   -1.33264264582082    0.24988787577190
C         4.91190439434959   -3.67228863098849   -0.12938444859726
H         5.17440396399234   -4.01357457036762    0.86813998276999
H         5.79695680220776   -3.70113337763581   -0.75834136401269
H         4.16061750022607   -4.34485159362199   -0.52980887725977
C         3.95487734722317   -1.59195525460044   -1.39062114275814
O         2.75654322859586   -0.87986582087324   -1.03399180731763
C         4.97079537322300   -0.61910682378870   -1.98434297258872
H         5.92276911293077   -1.12020338275947   -2.13484347617283
H         4.60706174694881   -0.26347467438776   -2.94532410344972
H         5.10592041216046    0.23650366755544   -1.33170784348172
C         3.56300687785283   -2.62540874849169   -2.45479790613620
H         2.83227133945324   -3.32100666137228   -2.05102283382624
H         3.10351837746282   -2.10521629336209   -3.29188764868417
H         4.43349760379137   -3.16945155483554   -2.80794704939571
H        -3.30638661966777   -3.21323255975677   -3.24423770722969
H        -4.76267451393823    2.27833171053739    0.69358325804789
C         0.23590000000118   -1.68140000000037    2.96030000000013
C        -1.04505417054241   -2.02211164958785    3.43496027291928
C         1.15921561155648   -1.42632801932330    3.98326896992782
C        -2.05976297711957   -2.74069766557089    2.60302512200824
C        -1.43179834634881   -1.81870616791259    4.76102929401982
C         0.80652383523937   -1.24225383463879    5.30690609619031
Br        3.02052490151471   -1.42243296500341    3.63201215576637
F        -1.55583452919734   -3.42396845579272    1.56672348854153
F        -2.71612951417713   -3.67749870238083    3.33476404615652
F        -3.05667670457459   -1.96908642721007    2.10502647867831
C        -0.51909257388486   -1.36746770295132    5.69043673664952
H        -2.44741459485653   -2.04035706996019    5.05343897930272
H         1.56869140359789   -1.01616612207839    6.03593469079399
H        -0.81608164680044   -1.18261445316202    6.70921369017821
