   98
 energy: -155.871449618246 gnorm: 0.000479260975 xtb: 6.4.1 (1a32961)
N        -0.94986424560730   -2.04003960088645   -0.35637522789874
C        -2.19114364674323   -1.55290859385635   -0.52215323963149
C        -3.05550008874450   -2.09768382294584   -1.47879105066236
C        -2.63199491537766   -3.14787027315956   -2.26561160299220
C        -1.34540790494519   -3.64309237421656   -2.08047952057647
C        -0.55135872156312   -3.05426838214136   -1.11701309090128
H         0.45386654792753   -3.40601474225093   -0.93374067564127
H        -0.97323092760168   -4.46393462946971   -2.67123603593113
H        -4.04793834365390   -1.70150866493176   -1.61435621980166
C        -2.56925935675293   -0.43107846855873    0.33545437992593
N        -1.61643967793567    0.04869744985176    1.15902275757789
C        -1.91396349887962    1.07028765663015    1.95651685193044
C        -3.15541515818956    1.67493438660323    1.98916278448286
C        -4.14947669198382    1.19244675113397    1.14481231293743
C        -3.84929942983973    0.13405403605352    0.31264509783176
H        -4.60934260196204   -0.25296738540063   -0.34487185126225
H        -3.34360881995721    2.49542614376309    2.66215315360552
H        -1.10648377849783    1.41470013532850    2.58413420984561
Ir        0.42150000000015   -0.81649999999992    0.91330000000002
B         0.39419856050659    0.57666580139144   -0.63471461013202
O        -0.23975140550998    0.27246297849798   -1.82388703843596
C        -0.33445773099520    1.44634953907532   -2.64015485259022
C        -0.07648820801268    1.08140233638550   -4.09956011293503
H         0.84412413627547    0.51581628437133   -4.19573779426423
H        -0.01847305145752    1.98191115974490   -4.70523343297382
H        -0.89467460810658    0.46530324072091   -4.46458407624167
C        -1.76787162520039    1.97665563832532   -2.49464824809642
H        -1.93051173914683    2.84508903017783   -3.12565733571586
H        -2.46059739554444    1.19010124156943   -2.78725900411097
H        -1.96827047459581    2.23373421713590   -1.45630601273151
C         0.73014414052831    2.39399550599777   -1.99636024295325
O         0.83644488000481    1.87751277048028   -0.66135649234872
C         2.11468483245693    2.24041395808520   -2.63727543674365
H         2.41415393013318    1.19622196171115   -2.58997691367961
H         2.11906542093855    2.59534097192076   -3.66367525190370
H         2.83164505530757    2.81815930382645   -2.05901544560946
C         0.34293551437186    3.87066649223744   -1.95814562531397
H        -0.54046837971656    4.03202206012094   -1.34825758612370
H         1.16118677810273    4.44253420317457   -1.52731215847817
H         0.15747198758380    4.23154900781227   -2.96652209578385
B         1.57499825143344    0.64992064999356    1.84997142731723
O         2.93511339192129    0.81639736800477    1.83435396512130
C         3.28182468373392    2.09582502359552    2.38920109971065
C         4.54549656940307    1.96890032885959    3.23800727307904
H         4.44644836783394    1.18372245960404    3.98001874643328
H         5.38481232828133    1.72088441754777    2.59357279348987
H         4.75461224465073    2.91155920295323    3.73585658689556
C         3.55340885333938    3.02269845391465    1.19895651108887
H         3.80586751813235    4.02714534596192    1.52465943431489
H         4.38472619824851    2.61656385873340    0.62731882234960
H         2.67855294475810    3.03570536041250    0.55416618440124
C         1.98960941016594    2.48907689914485    3.18500069007971
O         0.98875526550771    1.63789388855057    2.60545186760796
C         1.55668780666714    3.94559370619696    3.02825632487975
H         1.30300560730984    4.15926625574635    1.99536116632771
H         0.67546549792482    4.12230539161016    3.64019013981825
H         2.34975973290803    4.61073686305895    3.35806639640010
C         2.06930988712841    2.14606027753896    4.67719728293113
H         2.35728667929143    1.10798903550836    4.81275371877210
H         2.77846315343262    2.78890493168097    5.18892070097606
H         1.08595714284742    2.28331819775115    5.12135437214969
B         2.27820000000141   -1.33090000000061    0.17410000000021
O         3.10992426045792   -2.25704784527804    0.76427754663065
C         4.40308178898936   -2.23660562475531    0.14338388904688
C         5.33223606609053   -1.48207334642762    1.10005301436517
H         4.90326085554726   -0.50738204731776    1.31283536553778
H         5.38772394645613   -2.03564500066412    2.03407139819213
H         6.33197102572126   -1.38188447316962    0.68985764918626
C         4.90635542744511   -3.67048475361662   -0.02369525430843
H         5.02826367037674   -4.11403956329278    0.96097307182877
H         5.86620451824322   -3.67336895122042   -0.53201180728024
H         4.19952255555160   -4.27715338272839   -0.57967610567570
C         4.13415742897921   -1.46457798375319   -1.19841890589631
O         2.86278434958994   -0.83594980983022   -0.96276643569793
C         5.16318018151065   -0.38556569956512   -1.53123791875762
H         6.15406110746386   -0.82153955052706   -1.62058559980368
H         4.89712437906203    0.07953829349333   -2.47705019591077
H         5.16470663465768    0.38189103795995   -0.76516774484613
C         3.96477168995920   -2.38849010484264   -2.41142414404887
H         3.19634975561659   -3.13108802662650   -2.21617897905841
H         3.64443594735208   -1.79033425410294   -3.26092915049163
H         4.89955309838024   -2.88162108409446   -2.65942373319274
H        -3.28727347265674   -3.57338781189829   -3.01019873209179
H        -5.13475566917002    1.63306464920425    1.13892965367719
C         0.23590000000022   -1.68139999999734    2.96030000000080
C        -1.05073961297096   -2.05669682070729    3.34968644571224
C         1.20525362729997   -1.53775352299104    3.95421092750800
C        -1.37504737017921   -2.18655280127699    4.69305110758060
H        -1.81423925286558   -2.25210126739799    2.61219142100075
C         0.86368660415918   -1.68239293418179    5.28426461696478
H         2.22230236188779   -1.31661117533743    3.67028132298569
C        -0.42474877669646   -1.98977066103913    5.68836623616831
C        -2.77550731759596   -2.51707805868439    5.10579138110139
Br        2.20215612090041   -1.46377338806667    6.62318457308118
H        -0.68156474513534   -2.09236006034742    6.73094978870945
F        -3.52765157981593   -3.02393039536988    4.11329424778504
F        -2.83590283959823   -3.41369264883822    6.11002871443592
F        -3.45314699620722   -1.43315531014798    5.55391297408723
