   98
 energy: -155.871847812341 gnorm: 0.000278460538 xtb: 6.4.1 (1a32961)
N        -0.96827112225085   -1.97399022061358   -0.39190283144497
C        -2.19343665272633   -1.44654606189880   -0.56202354475401
C        -3.06162049160422   -1.94537396615653   -1.54040069721340
C        -2.65733559595802   -2.98652232018619   -2.34837681149995
C        -1.38529571056577   -3.51904791336433   -2.16333962901621
C        -0.58792444382473   -2.97777467649767   -1.17552463309036
H         0.40589551651454   -3.36059728703019   -0.99268110218941
H        -1.02623490156433   -4.33166212532027   -2.77313975656996
H        -4.04113128648469   -1.51805249003788   -1.67660475845398
C        -2.54349880337556   -0.32468901283494    0.30479478179988
N        -1.58184860540564    0.11173392635352    1.14339899326132
C        -1.84560978694143    1.14400995258702    1.94063714469969
C        -3.06073148048470    1.79786163983485    1.96181298072363
C        -4.06449750975086    1.35973169410872    1.10300622946323
C        -3.79879777040316    0.29372022096389    0.26956377105304
H        -4.56507924727157   -0.05756082658714   -0.40071704156850
H        -3.22302566661967    2.62338300237112    2.63544233021578
H        -1.03508574999478    1.44709470988525    2.58609109452313
Ir        0.42150000000026   -0.81650000000018    0.91329999999978
B         0.34836515520503    0.63717846468963   -0.57633198905165
O        -0.21464049448161    0.36355557743395   -1.80589246239595
C        -0.36978331828536    1.57827914172554   -2.55168292694482
C        -0.02037403946088    1.33227404678942   -4.01655885557155
H         0.94637189400595    0.84791235491014   -4.10339715229411
H        -0.00869220329613    2.27350671304891   -4.55989193787828
H        -0.76972842238605    0.68024478227358   -4.45879731081155
C        -1.84521753210561    1.98918812798937   -2.44474259404444
H        -2.04653983728603    2.87687947819767   -3.03680269302115
H        -2.46229475190384    1.17092236137024   -2.81073280294088
H        -2.11062035494783    2.17492616953142   -1.40567844444453
C         0.58618294063351    2.56014976994227   -1.79967172920751
O         0.66192377186228    1.97378587088344   -0.49166505701287
C         2.00784983153042    2.54029893312530   -2.37297733136092
H         2.37429351367879    1.51640364373560   -2.38220312883330
H         2.03833288959589    2.96745939708095   -3.37095043579731
H         2.65535926220909    3.11847332544153   -1.71870494747143
C         0.09033547430920    4.00083988404255   -1.70166786210963
H        -0.83341360936988    4.06451659363062   -1.13448523605329
H         0.84118045218482    4.60311455128692   -1.19585245385976
H        -0.06851718025906    4.40606410508425   -2.69763506471789
B         1.60066594039188    0.64218941193942    1.84989433610316
O         2.84323843259319    1.10710607107047    1.53858024651445
C         3.17860878559890    2.26344197731357    2.32237563178681
C         4.54924154660169    2.04202390145382    2.96646995496670
H         4.57617971742562    1.10734623796847    3.51703511732098
H         5.30074767848288    1.98880444290138    2.18333603870913
H         4.79363713785159    2.86700660289658    3.62837291067444
C         3.26994327619348    3.44356268798194    1.34943832889410
H         3.46364185865817    4.37389634098031    1.87420595987754
H         4.08475159395361    3.25405339107634    0.65474692315635
H         2.35008597947061    3.51551596823769    0.77703042191444
C         1.98447041777298    2.37391061827523    3.34588730447638
O         1.08347062674655    1.33972748537010    2.91913980644382
C         1.22269598616490    3.70161674825386    3.29538294502245
H         0.80767485046237    3.86721625993031    2.30614955392308
H         0.40165300956812    3.65936122690666    4.00781440079942
H         1.87371890951547    4.52764419296035    3.56476098343664
C         2.37087670541135    2.09343643200080    4.80229821546856
H         2.87620158514232    1.13879142279156    4.89988372174938
H         3.01348288911869    2.88035919406712    5.18444560243638
H         1.46414559676709    2.05951856289659    5.40261334325176
B         2.27819999999692   -1.33090000000227    0.17409999999831
O         3.19387882247879   -2.17719664638296    0.74825814291183
C         4.42844154426661   -2.13882091305799    0.01592736088744
C         5.36925347207397   -1.21390841383999    0.79258011752026
H         4.90042415992993   -0.24019541219051    0.90006614399690
H         5.51003202541510   -1.62487751725660    1.78884666061595
H         6.33234318234927   -1.12460117874780    0.30075946281265
C         5.02703151950780   -3.54220589592950   -0.04440166736598
H         5.28961963043909   -3.85027503138745    0.96383721862088
H         5.92338407589829   -3.53798177713491   -0.65780468243475
H         4.31786177830712   -4.25989651940360   -0.44337025596480
C         3.98717526094136   -1.53900070606264   -1.36429206975025
O         2.73745428855853   -0.90142867951735   -1.04831142680599
C         4.94498679137885   -0.50394725795883   -1.94973290476877
H         5.93159573961980   -0.93814228065451   -2.08361767438304
H         4.57036810648554   -0.17871466867376   -2.91719176836596
H         5.00934672541418    0.36238775730837   -1.30065410063599
C         3.69365399524375   -2.61060531671452   -2.42242737457732
H         3.00052462801093   -3.34862127353812   -2.02828660415711
H         3.22556063704337   -2.13360875696134   -3.28007756928989
H         4.60799889648767   -3.10005364847255   -2.74327001378943
H        -3.31492511612808   -3.37606422955008   -3.11043981160108
H        -5.03008314917810    1.84166701968077    1.08760213807313
C         0.23590000000025   -1.68139999999717    2.96030000000205
C        -1.09513401361616   -1.97945485256187    3.28065936307439
C         1.12568696907127   -1.64352668143088    4.03273874815680
C        -1.53630009503503   -2.08656965889303    4.58392174535953
H        -1.81136033780708   -2.13403298886380    2.48823971300367
C         0.71864681375044   -1.74704595017614    5.35137203382245
Br        2.99282680314929   -1.51143104755828    3.75286472485818
C        -0.62814893360553   -1.93925865472546    5.62828578669033
H        -2.57558656222376   -2.28409442783076    4.79991209272194
H         1.44013197388647   -1.68625647886443    6.15161791467857
C        -1.11043820656608   -2.05855932436527    7.03617866915691
F        -0.23918480652355   -1.60834066444561    7.95217376034248
F        -2.26035859261166   -1.38326521225596    7.25352060388368
F        -1.38427608977125   -3.33843529300468    7.39014963829643
