   98
 energy: -139.594555648904 gnorm: 0.000266536084 xtb: 6.4.1 (1a32961)
N        -0.90758215232052   -1.93449787359318   -0.50453126715807
C        -2.11088959949397   -1.36363230780521   -0.71346038126537
C        -2.91528493230891   -1.75764839269665   -1.78952292717673
C        -2.48178615158235   -2.74617661092316   -2.64542706255843
C        -1.23840842917232   -3.32986130519107   -2.41470830904611
C        -0.49782200785181   -2.88396698124873   -1.34049041919571
H         0.47282470164420   -3.30694086457240   -1.12193519167288
H        -0.86040385640220   -4.10866064416277   -3.05704717461061
H        -3.86998394890130   -1.28844486084216   -1.96224973143742
C        -2.50450121883403   -0.32801324043891    0.23294091500073
N        -1.58803353273502    0.02025937706636    1.16321350499771
C        -1.91561517342533    0.94133331659665    2.06657683940443
C        -3.13744756272270    1.58131749885151    2.09601296297402
C        -4.08547499970931    1.24858698033674    1.13141746193264
C        -3.76258394679854    0.28571293044486    0.19970225677110
H        -4.48939125766157    0.00404503487007   -0.54421808024149
H        -3.34921479792654    2.31644190127611    2.85557687950921
H        -1.14920651790571    1.17198081160254    2.79002922337678
Ir        0.42150000000007   -0.81650000000051    0.91330000000033
B         0.46957316241210    0.64366394320724   -0.59458573970765
O        -0.26297149853903    0.44747118048506   -1.75317608776803
C        -0.25859453354814    1.63700322486921   -2.54786967537191
C        -0.13905390215831    1.26920942678110   -4.02473802585876
H         0.70616774724616    0.60964461813053   -4.19038706488185
H        -0.02475772921725    2.16764582341869   -4.62583973848054
H        -1.04212905271383    0.74961000315815   -4.33633138187043
C        -1.60285010328104    2.33997453334606   -2.30931654846126
H        -1.69189372109481    3.23567241461146   -2.91691438252389
H        -2.40499635489556    1.65246173245426   -2.57033417614176
H        -1.70816125449999    2.59598117449814   -1.25696592730954
C         0.95330190377548    2.43220597098532   -1.96224128724268
O         1.07895376782158    1.87741239511405   -0.64609025220042
C         2.26430034768229    2.12785082355676   -2.69742441434813
H         2.43724902621814    1.05448894067505   -2.68549680798619
H         2.24397335732251    2.50194384260768   -3.71694419115988
H         3.08406974418250    2.60199381155619   -2.16242018293007
C         0.75355808865096    3.94440416046866   -1.87723527816518
H        -0.05748033299738    4.19673295061203   -1.20091783472831
H         1.66462586985700    4.40434697252998   -1.50140825820122
H         0.54125887777002    4.34743239443660   -2.86435417942839
B         1.54531411684894    0.69316868149290    1.81399900016285
O         2.91162727509480    0.81230849300015    1.86808257544658
C         3.28700830359977    2.09723681518818    2.38067847870928
C         4.43815014582311    1.93136368273550    3.37348752062645
H         4.17974755987915    1.22909136632795    4.15873518155977
H         5.30535437553586    1.54182180927380    2.84634285633698
H         4.69641894850910    2.89131319947582    3.81228701079543
C         3.76877188815256    2.92300879148894    1.18159973174698
H         4.03567246759881    3.93449119443841    1.47267461726652
H         4.64368726561692    2.43728951692365    0.75486156246667
H         2.98810232306712    2.93469595657142    0.42628968302892
C         1.94823741534333    2.63279163120984    3.00429929960982
O         0.95609606847429    1.76840806546068    2.43669166002333
C         1.60944010641576    4.07869231759332    2.64210002782761
H         1.48612595497498    4.18100764724087    1.56915037770402
H         0.67231501314374    4.35358794059384    3.11987880279215
H         2.39023533203850    4.74933161915494    2.99029529379888
C         1.87419763871445    2.46474656015789    4.52747899129382
H         2.02460894013830    1.42259916153345    4.79475073843637
H         2.60990327644635    3.08781776469967    5.02643224543599
H         0.88107656924398    2.75489987129364    4.86261834567304
B         2.27819999999958   -1.33089999999819    0.17409999999831
O         3.18118054373497   -2.15038727318514    0.81814722511793
C         4.42379741522934   -2.18592054199470    0.10851389560415
C         5.38697581072491   -1.25948296670282    0.85852905517668
H         4.93506659213638   -0.27545247502012    0.94144005196989
H         5.52304876246231   -1.64856943340545    1.86446619577408
H         6.35268663162723   -1.20145088840067    0.36573641569243
C         4.97838872088063   -3.61073534735282    0.12591411315997
H         5.20165680793375   -3.88474437185425    1.15358207416096
H         5.89139144323316   -3.66462649105613   -0.46053588177842
H         4.25577060695979   -4.32194237288170   -0.26005254684966
C         4.02702427676780   -1.64367467858650   -1.30961254545366
O         2.77626598769013   -0.98187583586677   -1.06330931732548
C         5.01573801704907   -0.64783934023203   -1.91344706982791
H         5.99913308363505   -1.10123811834257   -2.00281330434130
H         4.67229146105802   -0.35881813507172   -2.90370579071135
H         5.07642209115541    0.24563928372125   -1.30158064611741
C         3.75661356862383   -2.75970215075086   -2.32812181009175
H         3.03138017259808   -3.46378141805426   -1.92960501890120
H         3.33597702863184   -2.31606699169292   -3.22736762638358
H         4.67265803918647   -3.28231285809721   -2.58618898027763
H        -3.09325780815226   -3.05918865712305   -3.47830129728131
H        -5.05324874712045    1.72689983077504    1.11632524936873
C         0.23589999999839   -1.68139999999452    2.96030000000240
C        -0.97648071895641   -2.19738060549434    3.42567228544943
C         1.20743555572199   -1.33347990435331    3.90086243527396
C        -2.01579964195467   -2.80041643101245    2.52375476398126
C        -1.23977200773608   -2.19214037314979    4.79466602041276
C         0.94044350625439   -1.34795165377171    5.25816601326823
H         2.19033259832559   -1.05611733729324    3.55305996132559
H        -2.41720328107998   -3.70752783583895    2.97429141735908
H        -1.59104783153950   -3.04769761947271    1.55569120774961
H        -2.84700193144243   -2.11137792407667    2.37166831150517
C        -0.30589786848228   -1.75022044584366    5.71064123313055
H        -2.19629469329238   -2.56053250875159    5.14219834059425
H         1.70458225747032   -1.05808380527155    5.96615853749967
H        -0.53397277677059   -1.75224941293531    6.76699645760890
