  104
 energy: -153.031620838608 gnorm: 0.000240731761 xtb: 6.4.1 (1a32961)
N        -0.88614197311276   -1.98045649791365   -0.42971578555809
C        -2.11881974058185   -1.47275827513739   -0.60916405868253
C        -2.98784347095063   -2.01726685777589   -1.56334112922971
C        -2.58244069886315   -3.08628501133094   -2.33188532839355
C        -1.30359508969408   -3.60004460034976   -2.13443794909529
C        -0.50455707323711   -3.01031780722243   -1.17694554923509
H         0.49472457778085   -3.37695113067052   -0.98888770003887
H        -0.94456434464298   -4.43776344799940   -2.71003462676106
H        -3.97571984839170   -1.61005462664356   -1.70468479222686
C        -2.48821381322684   -0.35049718865027    0.24446161679950
N        -1.56215456207553    0.06352505490815    1.13512347644291
C        -1.87764889897640    1.04995790528707    1.97119314434310
C        -3.09781929062783    1.69464892245996    1.96700915061470
C        -4.05124353541099    1.30441570117315    1.03049986843488
C        -3.73856851902516    0.27554308186611    0.16844309232371
H        -4.46676239699084   -0.04196662434013   -0.55956871964665
H        -3.30107058768450    2.48114435956943    2.67582924726577
H        -1.09997083018831    1.33429347463180    2.66326292986605
Ir        0.42150000000000   -0.81650000000001    0.91329999999996
B         0.43383588257854    0.63387346810771   -0.59888639351808
O        -0.31178355755425    0.43661989332293   -1.74855761352228
C        -0.36036000258191    1.64379472596987   -2.51645384095403
C        -0.25575794133053    1.31392647235871   -4.00334735217732
H         0.60129914179313    0.67771312067620   -4.19740630717974
H        -0.17110146059790    2.22884372748725   -4.58404088794996
H        -1.15151618995378    0.78156743623770   -4.31443889992937
C        -1.72122361290564    2.29882576714520   -2.23850377010601
H        -1.84976529345500    3.20320213313128   -2.82589229223871
H        -2.50699871583077    1.59234359103343   -2.49871437441652
H        -1.81480049183022    2.53086326204495   -1.17951580453837
C         0.83570376114509    2.46509177635210   -1.93349126681206
O         1.00098566757972    1.88690941656385   -0.63116431338624
C         2.14303365896773    2.21767650271665   -2.69544150368378
H         2.34696999000835    1.14992093533861   -2.71371310065171
H         2.09583247610968    2.61616613515859   -3.70470421819098
H         2.95630164385481    2.70206761445829   -2.16011459293841
C         0.58997075732893    3.96764932121558   -1.81025216950866
H        -0.21340120321353    4.17827723420145   -1.11108771634410
H         1.49385855452323    4.44794180797355   -1.44299580681610
H         0.34321345918956    4.38553596554550   -2.78293613288283
B         1.56310632728576    0.67082766906501    1.84113258056401
O         2.93070829194344    0.79311293181749    1.85704228985396
C         3.31720034201091    2.06854139443223    2.38692208470861
C         4.52671332370127    1.89785320651141    3.30601671552447
H         4.33198157349383    1.16147233493738    4.07816756130435
H         5.37250974582009    1.55214616496063    2.71735504604002
H         4.78456975926941    2.84848586244690    3.76495298728728
C         3.70986737055898    2.93854773747001    1.18660475379590
H         3.98430679675350    3.94362588986874    1.49248446538809
H         4.55955240356526    2.47772222829534    0.68769668500694
H         2.88117235808591    2.96327858743426    0.48433053853151
C         2.00898937812629    2.55995264730889    3.10022510260358
O         0.99659033126241    1.72152420750349    2.52772932311495
C         1.64856196269459    4.02200092489069    2.83964897081230
H         1.46023167061980    4.18330586962751    1.78351757230474
H         0.74302230117873    4.26799601026801    3.38869098654158
H         2.44984286987310    4.67447152309250    3.17523417870283
C         2.00760513285756    2.30080732544428    4.61240194034952
H         2.19379181953247    1.24898237860131    4.80941913757741
H         2.75114983297540    2.91202080093921    5.11458071857586
H         1.02440224804058    2.54558630526713    5.00756525228846
B         2.27819999999867   -1.33090000000080    0.17409999999824
O         3.19858862240883   -2.15408757028617    0.78639506834437
C         4.42840273243925   -2.16649236314316    0.05051819684668
C         5.39917489191893   -1.24688103739964    0.79865444569737
H         4.93902520177751   -0.26988542620588    0.91178151380745
H         5.56261257838432   -1.65580204995502    1.79246477525436
H         6.35238150785824   -1.16885299291687    0.28489781984930
C         4.99408129374717   -3.58656852963613    0.02718813482797
H         5.24549270809675   -3.87923753908841    1.04310485097299
H         5.89244863691931   -3.62110593046060   -0.58285693059578
H         4.26784009909997   -4.29603579185763   -0.35507100037844
C         4.00105661298539   -1.59959245314848   -1.34900198407738
O         2.75009480789060   -0.95434545593382   -1.06474267167286
C         4.96701234346971   -0.58055976892984   -1.95129000321324
H         5.95285444537142   -1.02077249440846   -2.07268884730166
H         4.59810564357418   -0.27371033467493   -2.92685545571487
H         5.03118248652436    0.29984745243832   -1.32126344347536
C         3.71988832037098   -2.69569944932621   -2.38604353679567
H         3.01247099017692   -3.41753777615981   -1.98756100209226
H         3.27192125889247   -2.23666453961678   -3.26402310918178
H         4.63534547322302   -3.20092093160332   -2.67867486258702
H        -3.24383007216985   -3.51487152573454   -3.06967720117678
H        -5.01381200864205    1.79068220214799    0.98150956144386
C         0.23589999999986   -1.68139999999947    2.96030000000055
C        -1.00868423414588   -2.20768538777482    3.35768403698364
C         1.19514554042988   -1.43308605576454    3.92946210789217
C        -1.30139774384840   -2.38301428703993    4.72033539423456
O        -1.85754303156356   -2.46100619312799    2.32033145822403
C         0.89348571810386   -1.53608494695341    5.28122900804881
H         2.18468133410140   -1.14191816207177    3.61453245383983
C        -2.47943813776382   -3.09359573399315    5.26396455830956
C        -0.34768334405771   -1.98444055673714    5.66960476522295
C        -3.23413648041844   -2.65942475285562    2.50893696852890
H         1.63378000992956   -1.29120631143625    6.02793258720714
O        -2.85396557394114   -4.17289360726780    4.83635221383452
C        -3.15623715949692   -2.45311634785754    6.45386107981148
H        -0.57120086112742   -2.10375906861003    6.71770676572003
H        -3.69744550192591   -2.47190856037191    1.53954684727922
H        -3.64146450946368   -1.96111434829982    3.24854271896765
H        -3.46000348824963   -3.68192877328772    2.82726224512730
H        -2.75162910846822   -2.89034253673995    7.36555965144958
H        -4.21823297800185   -2.68737539033060    6.42571541830380
H        -3.00113334639823   -1.37909113586809    6.47216882522069
