  104
 energy: -153.029307723633 gnorm: 0.000277609432 xtb: 6.4.1 (1a32961)
N        -0.89236732930909   -2.00751942247282   -0.40510161513459
C        -2.14909954055507   -1.54950906206508   -0.56132079822996
C        -3.01378301775061   -2.12813469742545   -1.49945803601166
C        -2.57725566684063   -3.17323829050025   -2.28332068142571
C        -1.27247209724880   -3.63114767003940   -2.11571255687763
C        -0.48125614055789   -3.01707558742261   -1.16797245036620
H         0.53504854622553   -3.34312784923584   -0.99782131931463
H        -0.88794190147413   -4.44663637408103   -2.70632671300633
H        -4.02046505059627   -1.76282503751573   -1.61739802981173
C        -2.53905431510755   -0.43120167228357    0.28818757892220
N        -1.60177222354499    0.03493178536281    1.14074672609225
C        -1.91805577823674    1.04708518547031    1.94507406399863
C        -3.15524492503182    1.65806805035923    1.95294684813387
C        -4.12778581869851    1.20001299012531    1.06807282850734
C        -3.81185725317815    0.15084078782287    0.23245067764611
H        -4.55204454469203   -0.21578887229381   -0.45901029042683
H        -3.35798593716756    2.46891663713970    2.63361516792450
H        -1.12718684438509    1.37713413875460    2.60027910065393
Ir        0.42149999999994   -0.81649999999993    0.91329999999993
B         0.41083302570691    0.64194080827651   -0.58593549232721
O        -0.32651988905258    0.44629029426375   -1.74152212630761
C        -0.40827292559973    1.66830411075866   -2.48290580405676
C        -0.28822493575113    1.37604121138622   -3.97655715193973
H         0.58707445436199    0.76851391287324   -4.18149332759592
H        -0.22665949496655    2.30648356726462   -4.53508682397248
H        -1.16732751295952    0.82686472760643   -4.30520569086057
C        -1.78973489678532    2.27439154480669   -2.19551176707986
H        -1.94489691334790    3.18747272721493   -2.76263785836160
H        -2.55255622371447    1.54993282939322   -2.47445570771981
H        -1.89371766165666    2.47946080789780   -1.13189127279755
C         0.76050956422597    2.51319930844329   -1.87761118564373
O         0.94553726929801    1.90887241267362   -0.59096037711657
C         2.07650647331838    2.33063363253805   -2.64339050884062
H         2.31761478744186    1.27148378982918   -2.69051900026918
H         2.01800835271955    2.75481974071792   -3.64154738486726
H         2.87130288253347    2.82739561429132   -2.09197816201235
C         0.46577411631808    4.00319911477295   -1.71523896531406
H        -0.34919786950884    4.16881996482611   -1.01750994258318
H         1.35106543616681    4.50052028473729   -1.32596177213818
H         0.21402882436405    4.44065316043018   -2.67798493548488
B         1.54632088377537    0.63524944696886    1.89973144593177
O         2.91448669049245    0.71276801134460    2.02767795589127
C         3.28391270635925    2.00728835405361    2.52603966297037
C         4.46781197950364    1.88143214933795    3.48245495076606
H         4.26096714047157    1.16671470644246    4.27113064946079
H         5.33709155780077    1.53413082662976    2.92989138832163
H         4.69581407837789    2.84955358497677    3.92031753061919
C         3.69500302734861    2.84180690617411    1.30706567459721
H         3.97649798518508    3.85176059225168    1.58990063851069
H         4.54391853932102    2.35990247351401    0.82731234014175
H         2.87211453679353    2.85540388268036    0.59691944362228
C         1.95384695078879    2.51187505621951    3.17996763941424
O         0.96091579971735    1.71363489895045    2.52369390635642
C         1.64766756541136    3.99057171780910    2.95404820569610
H         1.50833377423350    4.19138864955067    1.89717326111733
H         0.72855864998646    4.24936360249933    3.47403505663448
H         2.45543500214545    4.60474850903574    3.34271609062583
C         1.86237781142191    2.19129471114065    4.67741022015621
H         2.00665101339431    1.12478736791846    4.82832634659664
H         2.59425483528953    2.75643210663380    5.24642123717422
H         0.86584739508209    2.44767381152171    5.03005388914281
B         2.27819999999873   -1.33090000000047    0.17409999999986
O         3.13630767003523   -2.25907507904009    0.72567607175231
C         4.40938661113320   -2.21673119162407    0.06830173718093
C         5.35355594150357   -1.44648158746020    0.99804230329293
H         4.90865801388388   -0.48314417993967    1.23056106391355
H         5.45147171048791   -2.00379901442192    1.92636992268980
H         6.33693831025022   -1.32166047275087    0.55579213281040
C         4.93374154938366   -3.64034961891181   -0.11950431092029
H         5.09935536733609   -4.08448989228364    0.85849803187451
H         5.87411117764294   -3.62367755286879   -0.66326306759684
H         4.21835959521949   -4.25881401727476   -0.65102514848874
C         4.09051226812513   -1.44615882826835   -1.26216845881082
O         2.83187499156351   -0.81790938975240   -0.97580619536545
C         5.10901944823221   -0.37162321565056   -1.63992264818454
H         6.09442484545220   -0.81143275747170   -1.76608143931872
H         4.80781152648834    0.08968288754008   -2.57700676983826
H         5.14364603783013    0.40068455028960   -0.87946559582723
C         3.87204775499398   -2.37291089226269   -2.46579346080257
H         3.11687032402332   -3.11916581189787   -2.23519644115963
H         3.51047648264395   -1.77754829192025   -3.30079080335146
H         4.79700887184028   -2.86225149367771   -2.75518282074022
H        -3.23324586778483   -3.62524838119113   -3.01159152456573
H        -5.10692081924895    1.65338646244974    1.03591992354365
C         0.23590000000009   -1.68140000000299    2.96029999999880
C        -1.05139952533368   -1.98246546682437    3.40687249935754
C         1.25835189329534   -1.72332940040134    3.89811471335509
C        -1.30168799797836   -2.17558422025803    4.74875118028239
H        -1.87710183930402   -2.05864972440131    2.71505079344533
C         1.04735377843824   -1.99521596152251    5.25731118640598
H         2.26844108016751   -1.60679793774266    3.53879641765708
C        -0.27541371602747   -2.17639130812930    5.69672934227545
H        -2.30459210885728   -2.35527051783755    5.10585590645056
C         2.24339414721641   -2.28768147809212    6.08280411177372
O        -0.71639813640051   -2.31446722868820    6.97890425731676
O         2.32288943916809   -3.30495495967285    6.75085565080338
C         3.38250303185455   -1.30464625208373    6.01468182984761
C         0.12837919443028   -2.09566618107754    8.08538530336088
H         3.68276617584728   -1.14721580383341    4.98224016785445
H         4.22434112492204   -1.67969639376851    6.59131206279453
H         3.05783224112791   -0.34883156688205    6.42187691137735
H        -0.53982937625939   -1.93633324372013    8.93148154075854
H         0.75665241013292   -1.21208985957553    7.93773717396116
H         0.77106673066299   -2.95906940644930    8.28044297104422
