   98
 energy: -146.728613048147 gnorm: 0.000204379732 xtb: 6.4.1 (1a32961)
N        -0.91979933254722   -2.03667453836142   -0.33739139330047
C        -2.17499829352175   -1.57569410748791   -0.47698146137672
C        -3.07218576665645   -2.19113286717610   -1.35909870705946
C        -2.67172174154393   -3.28585057989249   -2.09361906092930
C        -1.37000477653576   -3.75388029114558   -1.93449545026636
C        -0.54265355996782   -3.09346303501539   -1.05043623348647
H         0.47592422407781   -3.42006122332785   -0.89431453923695
H        -1.01371135365077   -4.60963391480973   -2.48473434281368
H        -4.07687053727255   -1.81797169561994   -1.47077142252793
C        -2.53416265523576   -0.42263516695740    0.33895439579958
N        -1.57536856500485    0.06278314192650    1.15401116415348
C        -1.87012117574297    1.08974963729807    1.94646687426836
C        -3.10732337077842    1.70168633039848    1.97444608857977
C        -4.10032525020070    1.22960032966551    1.12102254099597
C        -3.80552011044125    0.16224457753046    0.29975894743090
H        -4.56246866702634   -0.21679798839939   -0.36666367763415
H        -3.29305579592601    2.52426751565947    2.64615203382486
H        -1.06253549975186    1.43244551645694    2.57518269272106
Ir        0.42150000000010   -0.81649999999998    0.91330000000003
B         0.41612246969098    0.57502701937517   -0.63673391039460
O        -0.17617275331216    0.24799548184505   -1.84273939932444
C        -0.26104336422280    1.40709253932339   -2.67859731583851
C         0.06007189799479    1.02415740652905   -4.12112164519410
H         0.99905931037980    0.48318676425891   -4.17258934359193
H         0.11464724304651    1.91460438933657   -4.74210236854928
H        -0.72648078301575    0.37735852253262   -4.50230462989719
C        -1.70924909001152    1.91086108565979   -2.59766633797503
H        -1.86486111476805    2.76782008181648   -3.24622840424791
H        -2.37387603202557    1.10599736915191   -2.90575241418764
H        -1.95547613924227    2.17585738053835   -1.57131083557205
C         0.76075253786283    2.38469956668590   -2.00985119342595
O         0.83624518660203    1.88481546947512   -0.66723166892430
C         2.16864968146900    2.25775080330845   -2.60448506345963
H         2.49308907997448    1.22298522878284   -2.52601222819709
H         2.19682148280561    2.59332066979586   -3.63709958021586
H         2.85152946767726    2.86507112036392   -2.01520672145377
C         0.33923990353017    3.85267048027970   -1.99966141056798
H        -0.56941294276238    3.99875080702332   -1.42404904662140
H         1.12783334356093    4.44600640717810   -1.54331996702453
H         0.18356571234508    4.20109556847254   -3.01750299679329
B         1.58173563989790    0.63661526594388    1.86753563660024
O         2.95316050613403    0.73834710800373    1.90078847000865
C         3.33840752235194    2.01563907070746    2.42993192580975
C         4.58035114303045    1.86319797079455    3.30608018539163
H         4.43527778389866    1.09663414460989    4.05982133929960
H         5.42223660040612    1.57130143160477    2.68360836015084
H         4.81398734569474    2.80860417356351    3.78819668574915
C         3.66311815518445    2.90471429916267    1.22365807448061
H         3.95482569024281    3.90475567875668    1.53043912863368
H         4.48088732222325    2.45113236341501    0.66844339307736
H         2.79546299521702    2.94016215104498    0.56975117367226
C         2.04722857596611    2.47502281474898    3.18760721461952
O         1.02419780306419    1.67913505471215    2.57365925620185
C         1.70010028734925    3.95398487974302    3.02798393210379
H         1.48751590424189    4.18610716282179    1.98984527119569
H         0.81314313438485    4.17735862314391    3.61576718843604
H         2.52012320469072    4.57226248908350    3.38304419163702
C         2.06581389029035    2.11617542587873    4.67891722837624
H         2.26542256032052    1.05557715112932    4.80272873057015
H         2.80841443858708    2.70165188425958    5.21218839502152
H         1.08439693266377    2.32169177225208    5.09979639753429
B         2.27820000000058   -1.33089999999991    0.17410000000093
O         3.07075591487663   -2.34385858008945    0.67609531847622
C         4.36976168799804   -2.30893634650047    0.07105031341774
C         5.30348317073854   -1.64211347864409    1.08699211549872
H         4.89500939613095   -0.67157589766526    1.35385492329730
H         5.32683255535225   -2.25446462676787    1.98489705220880
H         6.31223957107834   -1.54343422054223    0.69836964973707
C         4.84632967897900   -3.73626347116727   -0.19713238515547
H         4.95616308836658   -4.25223842477664    0.75302657390931
H         5.80742978937891   -3.72057955428811   -0.70329079399287
H         4.12956089153080   -4.28661022295893   -0.79730210768192
C         4.13118193103498   -1.43504743990674   -1.21003192992154
O         2.89877673337952   -0.76046924215379   -0.91286007565403
C         5.21642328133470   -0.39643970489373   -1.48781732950042
H         6.18014202739603   -0.88162440495682   -1.61508809482193
H         4.96990018251718    0.14119336346960   -2.39988460509935
H         5.26825011595407    0.32032072510068   -0.67592126114576
C         3.89593328638620   -2.26777655219923   -2.47765500494482
H         3.09329347126379   -2.98158361866901   -2.31387822266400
H         3.59010093644733   -1.59989161331937   -3.27940868342907
H         4.80001410239986   -2.78919273420095   -2.77703483208974
H        -3.35364960982603   -3.76842039925166   -2.77735803404119
H        -5.07966181411162    1.68393589028573    1.10287750383578
C         0.23590000000022   -1.68140000000078    2.96030000000029
C        -1.02945474537983   -2.05588555892060    3.36661248799683
C         1.16573388362416   -1.54482248335699    4.00053389231791
O        -2.13605423122873   -2.34715989307439    2.57950675874202
C        -1.38627727598654   -2.19618014934700    4.70514735363865
C         0.82053936790663   -1.69020084929705    5.33187136623787
H         2.18568912341824   -1.31704021243552    3.73324576286503
C        -3.18642433529581   -2.62872211278780    3.46834769401764
O        -2.71953802685117   -2.54793803496379    4.79716633999989
C        -0.47920202101170   -2.01273566702787    5.72036539614562
H         1.57114078680459   -1.55987780904100    6.09653017509834
H        -3.57166716220732   -3.64393063584096    3.27625286116566
H        -4.00289115602313   -1.89949722411295    3.32349026717086
H        -0.76207114364008   -2.12602093614534    6.75299022341060
