   98
 energy: -146.723994389507 gnorm: 0.000182871107 xtb: 6.4.1 (1a32961)
N        -0.92679607454039   -2.02815113382240   -0.37342777073099
C        -2.17239003321081   -1.54463551081102   -0.53479784743262
C        -3.02233797224755   -2.06004892571257   -1.52116829198054
C        -2.58505019013994   -3.07872854688535   -2.33936114369523
C        -1.29677311674188   -3.57413960430311   -2.15567148183288
C        -0.51648455098247   -3.01473528283590   -1.16533054228824
H         0.48908848578185   -3.36713776949893   -0.98419655010437
H        -0.91435672352587   -4.37234103273653   -2.77074851593125
H        -4.01403504613849   -1.66056117677298   -1.65555912846955
C        -2.56410660551455   -0.45804321948688    0.35620955866912
N        -1.60845141763283    0.02138131488127    1.17885784539272
C        -1.91799922577419    1.01374281412083    2.00828622012276
C        -3.17243064195826    1.58564173511932    2.07777120690608
C        -4.17024137855035    1.10214224072011    1.23616102870989
C        -3.85838348559706    0.07625722581733    0.37005441918150
H        -4.61991861328824   -0.31454856914326   -0.28417931798108
H        -3.36991983253586    2.38254034774747    2.77635298149527
H        -1.10816157806386    1.35956092576120    2.63181647164980
Ir        0.42149999999995   -0.81650000000015    0.91330000000001
B         0.38298539841814    0.60153151783661   -0.61691572690312
O        -0.30089926422653    0.32923718604852   -1.78989237662977
C        -0.40804623993982    1.51735032271352   -2.58098665034085
C        -0.22401581391437    1.17232210392220   -4.05646062566571
H         0.68356761952821    0.59713495207064   -4.20582945565412
H        -0.18375627792559    2.08127813682565   -4.65104839372391
H        -1.06656418659372    0.57091228954536   -4.38965257005789
C        -1.82225189148572    2.07485012589512   -2.36244629682821
H        -1.99450412998198    2.95937208611943   -2.96843330111363
H        -2.54456236789761    1.30908078181442   -2.63851572292669
H        -1.97034881420964    2.31411636701988   -1.31111114260980
C         0.70225312744819    2.43238889500129   -1.96946165588760
O         0.85085488995859    1.89542781086696   -0.64809927592102
C         2.05614872975309    2.25896056149296   -2.66867450725129
H         2.33238076544877    1.20743068170999   -2.65148273813669
H         2.02856358873407    2.63272944757000   -3.68818722671724
H         2.80905139740495    2.80824204136016   -2.10840977065078
C         0.34939829792083    3.91654618098803   -1.89617489404883
H        -0.50178615225101    4.08721731571235   -1.24442709649664
H         1.19858083807512    4.46481750893424   -1.49551585873220
H         0.12628120495207    4.29515215904521   -2.89047585483318
B         1.56611068365759    0.65601014884796    1.84980110490394
O         2.93234658259763    0.80296802348468    1.85764462265652
C         3.28679900598345    2.08253508529326    2.40274813009855
C         4.54205799695054    1.95149332480904    3.26370232111580
H         4.42703447129155    1.17049260903314    4.00779977045923
H         5.38476232017521    1.69210798106377    2.62805365095891
H         4.75498344016623    2.89597707774795    3.75710508224527
C         3.57583887688289    2.99940817747869    1.20825276146850
H         3.83622881901683    4.00376234937142    1.52871978014040
H         4.40582857827250    2.58138452104648    0.64323417848479
H         2.70445481506750    3.01591818747588    0.55877929627853
C         1.99159301150523    2.49378065609050    3.18221634165342
O         0.98530635676190    1.67135936340968    2.57631905964824
C         1.59529838822061    3.96239787275114    3.04111127670397
H         1.36459947739455    4.19802534549838    2.00767020390012
H         0.70777749184792    4.15063148362901    3.64031914712179
H         2.39815788553962    4.60379340046316    3.39445594844147
C         2.04302602513693    2.12439959221854    4.67034650092610
H         2.27533589367243    1.06932459751092    4.78299223047651
H         2.77625299781223    2.72694310162695    5.19761888765303
H         1.06268490984678    2.29828904734743    5.10782097554385
B         2.27820000000013   -1.33090000000100    0.17410000000018
O         3.11257789037462   -2.27797959696818    0.72958183143783
C         4.40271121663449   -2.23845971037459    0.10727347459365
C         5.33271459198207   -1.50706008170910    1.08135364831332
H         4.90012963502456   -0.53988861777454    1.32000693401851
H         5.38962269536391   -2.08503690301071    2.00027269726092
H         6.33162757286977   -1.39331529130197    0.67206145551680
C         4.90968888540162   -3.66609047898439   -0.09962043082373
H         5.03557013798426   -4.13534864733082    0.87249083114782
H         5.86760352124366   -3.65311361986798   -0.61173047440670
H         4.20191358613337   -4.25914102674474   -0.66893877444413
C         4.13029196597717   -1.43120725677652   -1.21245631227749
O         2.86294770150214   -0.80746833687925   -0.95470224203821
C         5.16066844442479   -0.34627034553805   -1.52244211227512
H         6.15017002678628   -0.78170340266269   -1.62971080565864
H         4.88919942662596    0.14498974619078   -2.45335207476703
H         5.16786998748254    0.40016183136275   -0.73602087277482
C         3.95519642247242   -2.32335513103360   -2.44875575096970
H         3.18631140645264   -3.06938610990040   -2.26909010927521
H         3.63188988592119   -1.70304662609209   -3.28109647025474
H         4.88818864796643   -2.81131606433214   -2.71379083205913
H        -3.22852142376563   -3.48116619362093   -3.10694702178432
H        -5.16638310171885    1.51763824948150    1.26029791103782
C         0.23590000000117   -1.68139999999798    2.96029999999978
C        -1.05843407666326   -2.08202785658196    3.31772845677506
C         1.19688648313904   -1.51874301132433    3.95478258886039
C        -1.34819357552834   -2.20136896106082    4.65573166536578
H        -1.82087088033076   -2.29648961698022    2.58616599707811
C         0.90246445322081   -1.65079091859240    5.31016504241783
H         2.20750974226771   -1.28652801018425    3.65879474875936
C        -0.39057388149959   -1.98183611089781    5.63983123461800
O        -2.54533971760235   -2.55195101767734    5.25271372521579
H         1.64955196422321   -1.51163765364792    6.07427791556042
O        -0.95530117627229   -2.18193743046286    6.88566476506209
C        -2.29767361510948   -2.54672025962916    6.64389765140832
H        -2.96919055978174   -1.82306548574232    7.13347477073482
H        -2.48392710874067   -3.55337082581211    7.05275431106879
