   97
 energy: -143.924627521237 gnorm: 0.000214818248 xtb: 6.4.1 (1a32961)
N        -0.87985262242497   -1.94298210681884   -0.49016955885477
C        -2.10080540686636   -1.40770243233972   -0.67742388924125
C        -2.91718794700525   -1.83183117601911   -1.73256984816324
C        -2.48020676081564   -2.82278512194605   -2.58387912162643
C        -1.22158413041571   -3.37764168066764   -2.36861167296343
C        -0.46775871389843   -2.89729787251183   -1.31865625446741
H         0.51781063604590   -3.29325906222045   -1.11747680742450
H        -0.84083353890141   -4.16007228203344   -3.00501108270674
H        -3.88409884049026   -1.38352897725783   -1.89259183211761
C        -2.51019605870968   -0.37925267437034    0.27168220076531
N        -1.58436997937558    0.02285216618684    1.16737979616761
C        -1.92962559310026    0.92824017439530    2.07887884463087
C        -3.18510127344472    1.49599339157954    2.15426486631645
C        -4.14656517243985    1.10445417230331    1.22742461507672
C        -3.80154886953521    0.16087359969359    0.28389368261758
H        -4.53851483678160   -0.16870451301607   -0.42977383659234
H        -3.41033314719720    2.21820419744558    2.92227830768707
H        -1.15020903436290    1.20652670843296    2.77122457797893
Ir        0.42149999999992   -0.81649999999994    0.91330000000019
B         0.46319687162233    0.65110775059102   -0.58164366923608
O        -0.30221203722689    0.49502751827801   -1.72541260506032
C        -0.32217874559663    1.71494815229360   -2.47273714736705
C        -0.25581903187240    1.40744121724095   -3.96665402176901
H         0.58595090740905    0.76113956841462   -4.19189791457853
H        -0.16999790868950    2.33071145019855   -4.53403378460790
H        -1.16716038570578    0.89422362260586   -4.26481887185175
C        -1.65592081484144    2.40843149182154   -2.15859060026179
H        -1.76478192170620    3.32835816477076   -2.72532001538977
H        -2.46861690752738    1.73268415432374   -2.41845151074296
H        -1.72351575538500    2.62075628132098   -1.09341110380315
C         0.91049482561353    2.48667603694782   -1.89813065610936
O         1.08132445222921    1.88036226701977   -0.61036377773331
C         2.19604669816578    2.21364869779501   -2.68842579431792
H         2.36577848951278    1.14062254113142   -2.73241430224062
H         2.14452012343087    2.63425943481781   -3.68854123662763
H         3.03364226045354    2.66090967121430   -2.15780480332611
C         0.71461363576609    3.99395306840983   -1.74416828338346
H        -0.07141096920376    4.21680996965109   -1.02912183712718
H         1.63882527467512    4.43859620997222   -1.38239246430553
H         0.46681769520354    4.43729121106103   -2.70528779740421
B         1.52569786037254    0.68039120265341    1.85803194480561
O         2.88981246879055    0.78221440890358    1.97215634625568
C         3.25489221935748    2.06166757258545    2.50783098508838
C         4.37326299890833    1.88208656653256    3.53378524385936
H         4.07661758016077    1.19057337770763    4.31449026109165
H         5.24854833612347    1.47585186104088    3.03347529303731
H         4.63317057247809    2.84028978032818    3.97516807112530
C         3.77339706732263    2.89571293130612    1.32986703006194
H         4.03340175470723    3.90433808604815    1.63654376106358
H         4.65969505644636    2.41196937683033    0.92493494690221
H         3.01515377581229    2.91552808169484    0.55161202103552
C         1.90067784596993    2.59632649477716    3.09504307382306
O         0.92400092393851    1.75622753352079    2.46659952073749
C         1.59086717453085    4.05459977492118    2.75786873389857
H         1.50669626318597    4.18629200505704    1.68430619662636
H         0.64063381046188    4.32909243267976    3.20933885232709
H         2.36652566124263    4.70650164717305    3.15034024980895
C         1.76620207915662    2.38935253061971    4.60944118104621
H         1.88898225464444    1.33917203697331    4.85878977935612
H         2.49050216065732    2.98921493006685    5.15149387721420
H         0.76553427550877    2.68783468883844    4.91342533517847
B         2.27820000000170   -1.33089999999884    0.17410000000060
O         3.20513983286790   -2.12924344393854    0.81103788312971
C         4.44305378503163   -2.13451277551327    0.09021489919542
C         5.38991388122229   -1.18661252351655    0.83432915336533
H         4.91084689079051   -0.21679357712630    0.93098711515878
H         5.55215119029360   -1.57960561468730    1.83475099264588
H         6.34609919038724   -1.09740494386851    0.32802050525922
C         5.03208778804345   -3.54537392295228    0.09930587745997
H         5.27192686784959   -3.81714805637247    1.12379399115679
H         5.94050187776380   -3.57496677850149   -0.49594737765826
H         4.32355409610375   -4.27286609459999   -0.28236794344416
C         4.02346859605327   -1.59950851344442   -1.32417434011317
O         2.75721738719081   -0.97264772319778   -1.06783350239728
C         4.97874146467445   -0.57273815384412   -1.93055961025044
H         5.97441648790418   -0.99614383130309   -2.02989672810473
H         4.61880266125029   -0.29009121242947   -2.91677535269615
H         5.01667003908524    0.31992155888834   -1.31563017663901
C         3.77808149069053   -2.71830665148342   -2.34590813099474
H         3.07416848666523   -3.44377533296643   -1.94737546209597
H         3.34057025011385   -2.28225076934236   -3.24079956809916
H         4.70636528384427   -3.21486671706873   -2.61169182629737
H        -3.10163274885867   -3.15980296803628   -3.39992781519633
H        -5.14224595400133    1.52129685827905    1.24970297287120
C         0.23590000000205   -1.68140000000018    2.96030000000250
C        -0.97833471724762   -2.16940847488288    3.43603172886997
C         1.21586905348865   -1.42363824394722    3.91510856854984
C        -1.25453733404166   -2.26072700064034    4.79170997408619
Cl       -2.21070169437677   -2.75000275138174    2.34027898455167
C         0.97523529614871   -1.52016491319619    5.28651496701641
H         2.20008130242275   -1.14141110823533    3.57409180676034
C        -0.29145363931606   -1.92096614114709    5.71899769440908
H        -2.22103211201618   -2.61661484563359    5.11617560142612
N         1.95557085506595   -1.16856974675152    6.19333036328895
H        -0.50841528453039   -1.99357250842968    6.77401308777996
H         1.84783678056128   -1.53979560454608    7.12345141540635
H         2.89767270065860   -1.20144510976456    5.83763556971125
