  104
 energy: -151.585851592477 gnorm: 0.000464931692 xtb: 6.4.1 (1a32961)
N        -1.08221059771815   -2.03372630869233   -0.27481768257884
C        -2.32330843251353   -1.51924024780923   -0.37193357913201
C        -3.29498995429220   -2.12795203446849   -1.17548175405101
C        -2.97543297705491   -3.26042530364416   -1.89476299088745
C        -1.68086557086043   -3.76430301028741   -1.80318179890041
C        -0.77892732985648   -3.11754659496288   -0.98099409771145
H         0.23929824639238   -3.46126346303806   -0.87898428371311
H        -1.38691678036645   -4.64452524363788   -2.35127561594095
H        -4.29388078639114   -1.72601026167080   -1.22709913217949
C        -2.58246361679846   -0.30835830983127    0.40232394633479
N        -1.60617931845838    0.07260488136610    1.24586896232962
C        -1.79911682095475    1.14411313244745    2.00560988505148
C        -2.93904550273017    1.92085726573689    1.94807380796886
C        -3.93609008088107    1.56838040236213    1.04440532798260
C        -3.75766057656029    0.43938343248381    0.27302611440445
H        -4.51955887916044    0.15049621615970   -0.43304712188643
H        -3.04573241201290    2.78336809453919    2.58613098058646
H        -0.99574636530717    1.37444691540621    2.68906491437947
Ir        0.42150000000003   -0.81649999999986    0.91330000000016
B         0.29657814146372    0.41603280938927   -0.75841439030341
O         0.74278065754255    0.07716479101689   -2.01566293563398
C         0.12586406140542    0.91189174932150   -3.00223819444194
C         1.13702222619538    1.25447057835520   -4.09436851154163
H         2.04308936978563    1.67442873800116   -3.66967691304435
H         0.70357095322124    1.96020160192785   -4.79857258246721
H         1.40134355226326    0.34430431593863   -4.62760328429430
C        -1.02277982416354    0.10192204756082   -3.62093413063959
H        -1.50980706950509    0.65577068818739   -4.41826778639809
H        -0.61644941499338   -0.82278492823754   -4.02408940229671
H        -1.75158079985777   -0.15910019382461   -2.85630381647219
C        -0.37940007220004    2.12558916836973   -2.15463592921027
O        -0.46510254805212    1.57224711420420   -0.83581688850752
C         0.64240803965973    3.26698683431261   -2.10080310308540
H         1.59232205104894    2.88233140607765   -1.73742671202510
H         0.76935409360686    3.73012556215548   -3.07488705795022
H         0.28850318023692    4.01792692895436   -1.39729034710075
C        -1.74117837660403    2.68216094950059   -2.56727831404002
H        -2.52370595175446    1.94080748121543   -2.43701521203554
H        -1.98022658473741    3.53771457401357   -1.93996890720024
H        -1.71381609164042    3.00356182861565   -3.60510463167206
B         1.49956237424827    0.85333668892614    1.56431095508795
O         2.32350330559961    1.64414919821956    0.79474203721313
C         2.91569485718325    2.66904158896177    1.60109252520366
C         4.31453564488873    2.17928923918437    1.99585603660297
H         4.23403958176283    1.23347690207033    2.52468523582833
H         4.88277004589888    1.99755142274182    1.08736774986283
H         4.83580193818207    2.91579276041079    2.60061015125618
C         3.05092893979044    3.96281208402983    0.80032214723412
H         3.43161843290675    4.75605114753621    1.43870431998734
H         3.75225556456732    3.80163436277205   -0.01445105554661
H         2.10038298299739    4.26324530310597    0.37443860969618
C         1.93223205003017    2.74159597107359    2.81314821070326
O         1.34350583414963    1.43036446553748    2.81346270571467
C         0.79294285310722    3.74371220240651    2.57887611811818
H         0.29930033135430    3.51775575631081    1.63609778340674
H         0.06478686127882    3.63970773597006    3.38015403520088
H         1.16367383787864    4.76441041336183    2.57183027227540
C         2.58669350149576    3.03438367290914    4.15975000361970
H         3.34420324780517    2.29651086630292    4.39591484395915
H         3.04138763945467    4.02155122446068    4.13789074666137
H         1.82759244917105    3.01243689941637    4.93752684393719
B         2.27819999999773   -1.33089999999945    0.17410000000077
O         2.26555992618339   -2.26362712060379   -0.84671466329366
C         3.58743287631140   -2.48392506271596   -1.34574365046802
C         4.05210182041766   -3.84722190841124   -0.81755439511356
H         4.01543300319432   -3.84798094978188    0.26768440640289
H         3.36829089655925   -4.61253331706407   -1.17726473987747
H         5.05547734010336   -4.08118407942651   -1.16021786802507
C         3.54941903930848   -2.51839794565672   -2.87309099900671
H         3.02442658667130   -3.41421890341615   -3.19513549060846
H         4.55741611606133   -2.53704210971007   -3.27823190901861
H         3.01255988331597   -1.65610996274991   -3.25307318335942
C         4.37925480993015   -1.27938638517704   -0.73220762380228
O         3.56249480212066   -0.89158926956904    0.38326555486937
C         5.79381333569352   -1.60546040886293   -0.26174658421967
H         6.38884040043578   -1.96206239896639   -1.09841338205897
H         6.24946328754305   -0.70374989539068    0.13849003483721
H         5.78041290833325   -2.35349235036332    0.52243480319526
C         4.41789441143945   -0.07238140926673   -1.67756339951812
H         3.40141411106488    0.17634521891328   -1.97084955271179
H         4.82465350470359    0.77659169172050   -1.13428648128487
H         5.03288702320668   -0.26773121082499   -2.55109991145991
H        -3.71596110965650   -3.74282035554511   -2.51475040494898
H        -4.83271842086743    2.16238635913953    0.94849117525531
C         0.23589999999369   -1.68140000000391    2.96030000000131
C        -1.08987761380581   -1.94113331182534    3.30247734921935
C         1.16126699120474   -1.54557687390574    3.99796179281860
C        -1.51815834444013   -1.91008017381308    4.61923096220509
H        -1.81508037715325   -2.17444967239846    2.53543072887849
C         0.72399878603027   -1.49879343538276    5.32146598410688
C         2.61566629122769   -1.56655271467261    3.76989765133404
C        -0.61332819331368   -1.65174523735489    5.63484981192358
H        -2.55931458461034   -2.08799614202325    4.85122939631559
H         1.44976108646987   -1.37648121062039    6.11353084271905
N         3.09016373052457   -2.58581891668317    3.05765025608079
C         3.45740448102418   -0.64464962944535    4.39124906877374
H        -0.94050544941634   -1.60739198438263    6.66362094252192
C         4.39871786040502   -2.71332861007764    2.94121687718436
C         4.82524340019259   -0.77200112385940    4.23736225155923
H         3.02589513666860    0.15516029558629    4.97081554637575
C         5.31574484727402   -1.83803859833893    3.49861843063536
H         4.72954793193993   -3.58709823359247    2.39234357375842
H         5.50240734347646   -0.06452806313799    4.69589553864964
H         6.37589205929591   -1.98929172544065    3.36866281771574
