  104
 energy: -151.598381556783 gnorm: 0.000217660975 xtb: 6.4.1 (1a32961)
N        -0.89404718906723   -2.08778359568381   -0.31822081294396
C        -2.19542003340819   -1.75092744197339   -0.34037902305646
C        -3.12214784980053   -2.50992724728776   -1.06745011785271
C        -2.69725897356387   -3.60074163746830   -1.79348190957513
C        -1.34197418829676   -3.92097282713039   -1.78164291556759
C        -0.49302826445240   -3.13878708354658   -1.02660774656254
H         0.56488505221630   -3.35567384041748   -0.97777406768160
H        -0.96266743948013   -4.76226588231705   -2.33879228659427
H        -4.16877000725325   -2.25448458008463   -1.05841232733532
C        -2.57190369103787   -0.56884729099466    0.42428647362122
N        -1.61048549055013   -0.00519066905619    1.18381868500795
C        -1.91976030973445    1.06312434948542    1.91372525215445
C        -3.17430383427241    1.63844336077829    1.93203494479905
C        -4.16926489257219    1.08778395728694    1.12902037284332
C        -3.85919949320403   -0.01931810347852    0.36928037245455
H        -4.61216158477559   -0.45383996407044   -0.26711142754551
H        -3.37116612071197    2.49551819625609    2.55566845781845
H        -1.11045703611387    1.46996709041583    2.50052411221522
Ir        0.42149999999984   -0.81649999999996    0.91329999999959
B         0.33308251991283    0.62284403623794   -0.59498695860506
O        -0.37780067429773    0.32779946711343   -1.74505233546342
C        -0.51351358880455    1.50068700861681   -2.55358083775024
C        -0.35459376977686    1.13226280041371   -4.02661464773558
H         0.55512293557343    0.56216204622134   -4.18331792260289
H        -0.33344509211274    2.03111112565748   -4.63752581339867
H        -1.19746270791431    0.51766414941019   -4.33393953001083
C        -1.92893204693690    2.04762533134674   -2.31659107999578
H        -2.12320125697376    2.91816145844407   -2.93612152428070
H        -2.64873358412865    1.26917191462547   -2.56201700809714
H        -2.05827969901613    2.30617292061231   -1.26738295245339
C         0.59937428629862    2.43754879453149   -1.98051251536924
O         0.78536030674477    1.92243168558644   -0.65480839641013
C         1.93878539854383    2.26976463530926   -2.70837906521676
H         2.22888530133103    1.22200166736673   -2.68243015606491
H         1.88212441775770    2.62663804971760   -3.73268873088897
H         2.69791271458088    2.83765952851837   -2.17551595223048
C         0.23050606520201    3.91836427495373   -1.92066612551584
H        -0.60750943041384    4.08841454076650   -1.25191944313969
H         1.08184407422795    4.48304415963749   -1.54818011405575
H        -0.02036250220734    4.27908026086631   -2.91499718610692
B         1.55253198898409    0.66886557566658    1.85212763610595
O         2.91614421458795    0.85255876769341    1.81150010875304
C         3.26064181697339    2.13827767050802    2.34584713421851
C         4.54796777389299    2.03553081607488    3.16280919818127
H         4.47640438035741    1.25310145390481    3.91084071006245
H         5.37324385842298    1.79296994252238    2.49834586183081
H         4.75731668617276    2.98517937249802    3.64778346371606
C         3.49089577416576    3.06245952550729    1.14390818078698
H         3.73821379264296    4.07240977428363    1.45716210434082
H         4.31272020886754    2.66362786811672    0.55332385448293
H         2.60021219057554    3.05958059089680    0.52094918375481
C         1.98537636799689    2.52053576238093    3.17151852501200
O         0.97830464657177    1.66871940463037    2.61052235919440
C         1.54471493822025    3.97712778670492    3.03574850508145
H         1.26927336886663    4.19730265747267    2.00973141512616
H         0.67527469542292    4.14619751794682    3.66644886922116
H         2.34249576077766    4.64306144767802    3.35341292775511
C         2.10120612307903    2.16349309435178    4.65921281296925
H         2.37260453473855    1.11727443420436    4.76994029453131
H         2.83295720023468    2.79221179575516    5.15725065407252
H         1.13084925223436    2.30852710963152    5.12851191872113
B         2.27819999999731   -1.33090000000007    0.17409999998736
O         3.17302659037867   -2.20061238714975    0.76213054333406
C         4.42703395956857   -2.17417424293762    0.06849405876725
C         5.38052644573858   -1.32835915959087    0.91951079389164
H         4.92387975513337   -0.35951847276850    1.09975092563292
H         5.51280914496349   -1.81981264449755    1.88016671351100
H         6.34931783618404   -1.21647328130135    0.44278130013184
C         4.97669475147055   -3.59672555047570   -0.04260658793126
H         5.17684763382326   -3.97305558300983    0.95718872084340
H         5.90227931969451   -3.59644570702359   -0.61147690231122
H         4.26120577446683   -4.26230991590625   -0.51374181391881
C         4.05638315449108   -1.49685374193899   -1.29908547057349
O         2.78955136734026   -0.88206246013034   -1.02184073791492
C         5.03691907066763   -0.42302818562936   -1.76884872604019
H         6.03007496567679   -0.84511393647671   -1.89519213515802
H         4.69912063548765   -0.02780312626631   -2.72357155108383
H         5.07061533517385    0.39469981740841   -1.05733441857141
C         3.83485020253022   -2.50287083253382   -2.43693801730038
H         3.10729438491216   -3.25369931367541   -2.14131502520129
H         3.43607422202395   -1.97110047287432   -3.29755094419442
H         4.76624034045711   -2.98439203040976   -2.71878639803721
H        -3.40092317876156   -4.19393901736733   -2.35753378988404
H        -5.16006521521697    1.51555870542471    1.10141063587242
C         0.23589999999666   -1.68139999999724    2.96030000000957
N        -1.01233244141207   -2.01517482622366    3.22695278131222
C         1.19415816192513   -1.53501747169692    3.96925421289849
C        -1.41811914307041   -2.13711752808799    4.49413834445004
C         0.78485231771739   -1.64837226981409    5.28414817511003
H         2.21969280486291   -1.33340268990621    3.70514466799732
C        -2.83402496451300   -2.47970753338225    4.69640946192094
C        -0.54492511107295   -1.93813810319930    5.56046729568746
H         1.48844729817308   -1.51640946360617    6.09519078830488
C        -3.26475255402008   -3.19497091647720    5.81228343256590
C        -3.77633516265489   -2.08655801867937    3.74768281603662
H        -0.89357320010612   -2.00167779788681    6.57940285541733
C        -4.60496863191869   -3.49290483057874    5.98020542280633
H        -2.54737326907074   -3.53759535101005    6.54316771283987
C        -5.11489990623146   -2.38277778689497    3.91908620122592
H        -3.43583035977924   -1.54262746977428    2.88043651062385
C        -5.53493994815711   -3.08375798026075    5.03844563252562
H        -4.92560324908010   -4.04945821951956    6.84901864765412
H        -5.83490958952689   -2.06621591299025    3.17853463971955
H        -6.58112854067515   -3.31523678551546    5.17425333562164
