  104
 energy: -151.598001353926 gnorm: 0.000533385293 xtb: 6.4.1 (1a32961)
N        -0.92128023717827   -1.91086395339966   -0.45755688329771
C        -2.13348776969611   -1.35833841874926   -0.65015436990089
C        -3.00923274711101   -1.86593263555209   -1.61711285292451
C        -2.63104004495370   -2.94012469944454   -2.39116765336118
C        -1.37021307959065   -3.49526851420449   -2.18788413939322
C        -0.56436229738017   -2.94422101827851   -1.21459316064831
H         0.41997646541624   -3.34591708508682   -1.01771895433266
H        -1.03066261807314   -4.33641856200169   -2.77030105004039
H        -3.98297618359516   -1.42741402324626   -1.75741855176124
C        -2.46863370093068   -0.22463862844002    0.19902858297906
N        -1.54696595720242    0.13055388691013    1.11944146740294
C        -1.82208291639187    1.14602685139901    1.93552165609851
C        -2.99085876036159    1.87607720252101    1.87976119810881
C        -3.93735189242568    1.54123377589679    0.91533315313724
C        -3.66895720805981    0.48353005713134    0.07422331137930
H        -4.38988141300434    0.20902137560553   -0.67737160847050
H        -3.16075706252414    2.68466762443869    2.57232137197547
H        -1.05338485242993    1.38253890468922    2.65488551333625
Ir        0.42149999999959   -0.81649999999960    0.91330000000021
B         0.51522432672301    0.63664618916602   -0.59076384169677
O        -0.17220889386236    0.43825496779128   -1.77329229005412
C        -0.12536076323652    1.62415115138077   -2.57453903644257
C         0.06339268399702    1.24363392139650   -4.04100971192425
H         0.91015042693359    0.57566733517824   -4.15870607579333
H         0.21370611469569    2.13588109324409   -4.64320843938677
H        -0.82730400420523    0.72841729218067   -4.39259262808072
C        -1.47610576972780    2.33391449511115   -2.40571874405416
H        -1.53054017007577    3.22566201983904   -3.02302600070594
H        -2.26787363802228    1.64825883538723   -2.70070350593388
H        -1.63205100949884    2.59781279544119   -1.36164854811097
C         1.06126817483403    2.41942125899185   -1.93718602515582
O         1.12866731497092    1.86710175443847   -0.61406286989425
C         2.40271437984984    2.11297730680483   -2.61390698219178
H         2.57833505818526    1.04077835924547   -2.58069977952202
H         2.42286287550424    2.47476815454633   -3.63777752139318
H         3.19791889156184    2.59715416490355   -2.05174527723532
C         0.86140423087197    3.93182343449994   -1.86212706351409
H         0.01834804014083    4.18693449253781   -1.22769066680973
H         1.75370775970557    4.38800546555198   -1.43984961416093
H         0.70138089188394    4.33542742535054   -2.85871797308231
B         1.60597127451153    0.60954342822848    1.88325015591406
O         2.97822302165973    0.63515626802767    1.96357144529569
C         3.42665334713093    1.89944269220555    2.47032401936318
C         4.58644134942217    1.68159068536000    3.44188268547980
H         4.31563700363223    0.97965792908429    4.22339176806812
H         5.43300948147502    1.26995950621786    2.89813597860327
H         4.88346919398861    2.62696810784849    3.88774926681147
C         3.91871502057145    2.70240446354538    1.26015145057032
H         4.24980117178931    3.69629099334963    1.54578080563749
H         4.75202179372414    2.17011837359948    0.80665894129952
H         3.11826009509297    2.75928846191698    0.52737487075823
C         2.12674346564700    2.49584176443379    3.11513674760982
O         1.08371044476192    1.70998739990979    2.52217830900189
C         1.87687903906468    3.97030945380833    2.80230891764898
H         1.74230073003327    4.11311973230734    1.73532434046517
H         0.96844585984076    4.29150089322552    3.30580651454491
H         2.70645130253915    4.57690679919323    3.15496691718487
C         2.04807396429900    2.27946047013240    4.63190600183711
H         2.15475050943730    1.22305581596609    4.86325698035285
H         2.81158211667486    2.85226023733259    5.14909279201750
H         1.06926618232693    2.60067826675181    4.98090619889123
B         2.27819999999996   -1.33090000000116    0.17410000000093
O         3.09163779761566   -2.28348818464470    0.75641139441695
C         4.35854769394413   -2.34171118876831    0.09055041604322
C         5.35633390451795   -1.58777855527614    0.97597339081843
H         4.97602717108194   -0.58735719410075    1.15975542753928
H         5.42311259734847   -2.10042709312572    1.93239518415991
H         6.34292038514046   -1.54931541523215    0.52478170813771
C         4.79790152478915   -3.80078543268673   -0.03689498806582
H         4.95648489857164   -4.20584226137378    0.95909627841343
H         5.72702707460597   -3.86527428914106   -0.59612232719212
H         4.03808086952086   -4.40145184055656   -0.52539168337394
C         4.06641121771867   -1.61331946520322   -1.26813105538828
O         2.85731970741132   -0.88708671112659   -0.99213467867940
C         5.15235330513756   -0.63710104043042   -1.71606003339483
H         6.10248443914741   -1.15361738314986   -1.82051788128194
H         4.87710955515541   -0.21177360261039   -2.67783073629372
H         5.25052065848000    0.17370607955758   -1.00262916143656
C         3.75752761839124   -2.58199288471208   -2.41781601231581
H         2.96018790987062   -3.26236869081264   -2.13177434312493
H         3.41541123921844   -2.00738180995524   -3.27520654728544
H         4.64084210502926   -3.14674820025258   -2.69975088578747
H        -3.29929420282552   -3.34266634070409   -3.13725683963390
H        -4.86024880759124    2.09439258121620    0.82818394392807
C         0.23590000000214   -1.68139999999872    2.96030000000062
C        -1.04166226606689   -1.94783623579997    3.47665102101455
C         1.25508966780534   -1.50461339690425    3.89978682121742
C        -2.18906474448783   -2.38366315309399    2.65708569027087
N        -1.32334150150284   -1.85293725075434    4.77772655969364
C         0.96695999997716   -1.45960183274556    5.25391509799188
H         2.27270965451859   -1.39865570216229    3.55458921756731
C        -2.07207019887574   -3.46186104121389    1.78554179539346
C        -3.43150677782774   -1.77737502103182    2.81922919638184
C        -0.35869368405232   -1.59246592006598    5.63818726517581
H         1.74333944996671   -1.32143612422176    5.99187974386866
C        -3.17202196051684   -3.90762761052357    1.07484206544642
H        -1.11977880127105   -3.96117618585897    1.68302030050647
C        -4.52404180803218   -2.21096618661255    2.09227195413998
H        -3.52440778452843   -0.95703373662172    3.51520959339540
H        -0.66531682912008   -1.51925780902018    6.67425736281148
C        -4.39671595188695   -3.27665946897293    1.21621062896599
H        -3.07350801777670   -4.75152007785440    0.40738076769826
H        -5.47938005124377   -1.72117561499902    2.21422980142268
H        -5.25146689776276   -3.62040366464659    0.65250728693452
