   92
 energy: -134.367727581846 gnorm: 0.000683452492 xtb: 6.4.1 (1a32961)
N        -0.94267526300265   -2.05597759588133   -0.31588963683830
C        -2.20109077847287   -1.60199214200029   -0.45146809789885
C        -3.09377020505921   -2.21238073967070   -1.34067024360304
C        -2.68368080845393   -3.29417782275139   -2.08982179449719
C        -1.37939971395296   -3.75493377069192   -1.93534729431859
C        -0.55713921927773   -3.10174836477158   -1.04052432938787
H         0.46272577867862   -3.42449794452273   -0.88512040521375
H        -1.01569916741299   -4.60012664063819   -2.49672517947138
H        -4.10057460415073   -1.84459172361795   -1.44831164096201
C        -2.56546937404161   -0.45295251240942    0.37169025383951
N        -1.59687620388486    0.05590473433741    1.15935193628890
C        -1.88367616949351    1.09725111084264    1.93546749118994
C        -3.12782311917691    1.69491455432510    1.97890569408547
C        -4.13604147646926    1.18770373825892    1.16573239756750
C        -3.84766384115053    0.10821875223136    0.35770722549211
H        -4.61727481941169   -0.29819380800066   -0.27678209973430
H        -3.30621586344669    2.53280967539702    2.63321415882691
H        -1.06485973846574    1.46396599101360    2.53556989270279
Ir        0.42149999999998   -0.81649999999994    0.91330000000000
B         0.41763245885745    0.54878344846547   -0.65796196622483
O        -0.17561280670601    0.20795305900348   -1.85924595185966
C        -0.28548372481691    1.36376193873665   -2.69730297258693
C         0.03039057310370    0.98258690179593   -4.14132427055620
H         0.97703862136968    0.45569298822283   -4.19951343098217
H         0.06665737804838    1.87236924823650   -4.76459751084618
H        -0.74925718701909    0.32324042775181   -4.51505574649199
C        -1.74122205374058    1.84357550409710   -2.60613984607211
H        -1.91685686441662    2.69508870478870   -3.25670467094453
H        -2.39449299406025    1.02627427449431   -2.90549075084769
H        -1.98310363570877    2.10868191966598   -1.57879321039959
C         0.72464221830681    2.36009177137851   -2.03827009256310
O         0.81921911529462    1.86445916843936   -0.69562512168413
C         2.12973423024990    2.25868956567808   -2.64481526804098
H         2.47525859787853    1.23045388496312   -2.56911100441103
H         2.14172350450910    2.59325408385477   -3.67813172795237
H         2.80662426122000    2.88000459527069   -2.06295668663022
C         0.27742251658682    3.82055236746821   -2.02668530890073
H        -0.63099684730929    3.95127917589975   -1.44708171122389
H         1.05767205527777    4.42744499988855   -1.57375863609427
H         0.11149816543339    4.16595354099348   -3.04393430707018
B         1.58631636975849    0.63112682386421    1.86710308316677
O         2.95848150301354    0.72766329028257    1.90376891956502
C         3.34221681991668    2.02026564915740    2.39514348929901
C         4.59316416614824    1.89825462356945    3.26301889849881
H         4.46050745815010    1.15190745412210    4.03934518768531
H         5.43048236532501    1.59332454355715    2.64039949497553
H         4.82646009660049    2.85754244341382    3.71709582460599
C         3.64978460854755    2.87942694666241    1.16297440409515
H         3.94281747920935    3.88748125521388    1.44115769794325
H         4.46131129324176    2.41377088457033    0.60868207812915
H         2.77395859947134    2.89590146903846    0.51914367670000
C         2.05506098434751    2.49372889189085    3.14996223662398
O         1.02976218334137    1.68830308866250    2.55263621048653
C         1.70911712057959    3.97018811068355    2.96742675013437
H         1.48642902018476    4.18354928852624    1.92739333157773
H         0.82912050378664    4.20690900205867    3.56048291624220
H         2.53480520586094    4.59226895198012    3.30223570369665
C         2.08035284156977    2.15985445922353    4.64695831190400
H         2.28959145032063    1.10297818918782    4.78863445374308
H         2.82112656713262    2.75858216895433    5.16823192934684
H         1.09897396267476    2.36550266535309    5.06811072535062
B         2.27819999999968   -1.33090000000076    0.17409999999976
O         3.04568718223039   -2.37361536634439    0.65417560894624
C         4.35831093165603   -2.33283640796918    0.07981936551232
C         5.27773288140837   -1.71976290552434    1.14195313178285
H         4.87825689098305   -0.75348145316778    1.43686490733034
H         5.27134818752902   -2.36599567146860    2.01635320086200
H         6.29667396355826   -1.62216791400443    0.78050348161456
C         4.82245425658550   -3.75517983815797   -0.23284138819745
H         4.89958316805414   -4.30966223727887    0.69875494506273
H         5.79715725050684   -3.73329433979341   -0.71211790758626
H         4.11462951664245   -4.27067481163507   -0.87317765784070
C         4.16017366497337   -1.40623139241133   -1.17095602078509
O         2.92741040972670   -0.73040033638126   -0.87832285467656
C         5.26132202292100   -0.36823121604496   -1.37904276738382
H         6.22270319224526   -0.85711453541430   -1.51006741919011
H         5.03696173848911    0.21381760448061   -2.26932009905688
H         5.30410353503965    0.30902977844106   -0.53334037305545
C         3.94976817563397   -2.18477187000689   -2.47668175301255
H         3.13126383134817   -2.89067918048260   -2.36462074578359
H         3.67933403277024   -1.48095839338062   -3.26043678725783
H         4.85401714156686   -2.70943467238651   -2.76944261378395
H        -3.36124646473120   -3.77212434511428   -2.78093482513442
H        -5.12283179933417    1.62554657924148    1.16626926699729
C         0.23590000000074   -1.68140000000000    2.96030000000006
S        -1.34402530899514   -2.20285026362447    3.47528549267115
C         1.06528816451789   -1.60017219484950    4.04201891794389
C        -0.86836649701446   -2.22238904346870    5.13562711793921
C         0.43628450374886   -1.87905472331864    5.27844562063241
H         2.10491645352215   -1.34187725350675    3.94446748009985
H        -1.58434726486279   -2.48455773784905    5.88882007614642
H         0.93899112199197   -1.83036623168208    6.22951392056575
