   92
 energy: -135.189471823103 gnorm: 0.000177940660 xtb: 6.4.1 (1a32961)
N        -0.91162807698262   -2.04372585253176   -0.34735306316990
C        -2.16422232168788   -1.57950081726998   -0.51775725887385
C        -3.04541184964961   -2.19897363024289   -1.41376889109928
C        -2.63034813698996   -3.29456831938243   -2.13804290207949
C        -1.33016318193350   -3.76031296107552   -1.95471295120879
C        -0.52091290574492   -3.10183302692315   -1.05327719147621
H         0.49289561387791   -3.43099493710220   -0.87385333446683
H        -0.96258529980113   -4.61519023536629   -2.49870102462120
H        -4.04890126177183   -1.82789854001506   -1.54177463605607
C        -2.53129753803543   -0.41445516892001    0.27625310863884
N        -1.58961192237643    0.05879410912728    1.12125026707475
C        -1.88454117556284    1.11491540933859    1.87656254530792
C        -3.10175539192448    1.76372699887708    1.83913646668908
C        -4.07653103297687    1.29925590433297    0.95963318564957
C        -3.78352633572627    0.20467635751041    0.17533718859544
H        -4.52338291373660   -0.16595200305086   -0.51453499038642
H        -3.28716486686194    2.61098275708107    2.47930234774133
H        -1.09173494124474    1.44987976772186    2.52736981971703
Ir        0.42150000000004   -0.81650000000001    0.91329999999999
B         0.43827563832977    0.56904211590050   -0.64133426676792
O        -0.14130567704036    0.23117767360117   -1.85074544354264
C        -0.21476662039180    1.38082531277306   -2.69971866513758
C         0.12991551294859    0.98106337783791   -4.13242011089884
H         1.06933409268885    0.43908955608177   -4.16207385386152
H         0.19494553181380    1.86362663915789   -4.76352747617505
H        -0.65050906331718    0.32965610512757   -4.51840860802122
C        -1.66507916967602    1.88258896166521   -2.64862018842028
H        -1.81147379002629    2.73159307665308   -3.30975222096494
H        -2.32290844423720    1.07281473716854   -2.95854041182849
H        -1.92934978284794    2.15920574342076   -1.62983637346691
C         0.79499253411150    2.36816955051447   -2.02618387125826
O         0.85943411712220    1.87847244414276   -0.67970746435105
C         2.20960775345866    2.24721698105793   -2.60631103811341
H         2.54206945737929    1.21613046265184   -2.51466529315161
H         2.24478521085466    2.57261169730226   -3.64202625915739
H         2.88233042632288    2.86625538005396   -2.01732495611863
C         0.36500190279991    3.83391070921094   -2.02989490059795
H        -0.55103340083642    3.97850861350904   -1.46569172794605
H         1.14489060761986    4.43450021827446   -1.56801797108006
H         0.21930624863967    4.17537432572172   -3.05157826858874
B         1.57678677640906    0.63024461248958    1.88473694674377
O         2.94878739642470    0.71520942251574    1.95222429229242
C         3.33499282762901    2.00518481797054    2.44681070646368
C         4.55531559691903    1.87137762127404    3.35591206973057
H         4.38440934912256    1.13611068018053    4.13511214311479
H         5.40667343780982    1.54531323039134    2.76393559773727
H         4.79058989876579    2.83167296543786    3.80694246075236
C         3.69660954500152    2.84933913569497    1.21875874736378
H         3.99331710915062    3.85610828396386    1.49765568674572
H         4.52100243803625    2.36811423048544    0.69763960536258
H         2.84412992227016    2.87173114133056    0.54459841910612
C         2.03159948555964    2.50398959275249    3.15765922518309
O         1.01444123533306    1.69841092630374    2.54838440647374
C         1.70457459430822    3.97980055202784    2.93658780307313
H         1.51231514643192    4.17310126486710    1.88657859051197
H         0.81021334408672    4.23558511042989    3.49943915756689
H         2.52570345496861    4.60236212680200    3.28137236148228
C         2.01218843922852    2.19957487528017    4.66128148299494
H         2.20047417968720    1.14263461397787    4.82977386600746
H         2.74742336770241    2.79824863456465    5.19031122696602
H         1.02329363857440    2.42924613997957    5.05122381042714
B         2.27820000000047   -1.33089999999927    0.17410000000027
O         3.04918556558270   -2.37583738052632    0.64444576040741
C         4.35613789992287   -2.33347996597549    0.05830475677069
C         5.28096864993001   -1.70239152781351    1.10503859910678
H         4.87628395070197   -0.73615856597029    1.39347979356996
H         5.28778116139389   -2.33914206918780    1.98614869342104
H         6.29568096903212   -1.60095643996839    0.73284228358264
C         4.82696765346455   -3.75520367865822   -0.24588360235994
H         4.92163785980128   -4.29945329698230    0.69000125373995
H         5.79454828345501   -3.73073814042382   -0.73929455234560
H         4.11442586744446   -4.28275369532575   -0.87102548932952
C         4.14054298257980   -1.41965285710120   -1.19792665300865
O         2.91964697146271   -0.73169723793823   -0.88582357269519
C         5.24731904894431   -0.39576255415834   -1.44277465956520
H         6.20193760292037   -0.89693007206319   -1.57698053612943
H         5.01747518473213    0.17026051915177   -2.34199596890417
H         5.30913728177286    0.29857612089172   -0.61223775620887
C         3.89535755519055   -2.21341550999470   -2.48856131683300
H         3.08033484857832   -2.91786242033644   -2.34625976270024
H         3.60382350129844   -1.51928601955183   -3.27340952703712
H         4.79172333370385   -2.74161610990617   -2.79907792785124
H        -3.29936606618550   -3.78023718211134   -2.83205050225683
H        -5.03906771725917    1.78332957892973    0.89169014870391
C         0.23590000000028   -1.68139999999956    2.96029999999956
C        -0.97478690621641   -1.99676021965439    3.50474096302063
C         1.12121117077204   -1.59227174308776    4.07737758986224
O        -0.90735402892011   -2.06890890339300    4.85932075582826
H        -1.93700412041114   -2.18671423810836    3.07063978208312
C         0.37713791274636   -1.82138224785157    5.18940802465989
H         2.16975561761421   -1.38454356902683    4.02590204281519
H         0.61843770231552   -1.84204886511196    6.23423291494944
