   92
 energy: -135.189471862180 gnorm: 0.000177317196 xtb: 6.4.1 (1a32961)
N        -0.91162255248877   -2.04372165319849   -0.34736075223831
C        -2.16421756501457   -1.57949794531918   -0.51776082035148
C        -3.04540086299764   -2.19895738194644   -1.41378765286746
C        -2.63033185757658   -3.29453917752580   -2.13807796236225
C        -1.33014723506607   -3.76028483348484   -1.95474885074162
C        -0.52090218794687   -3.10181708234636   -1.05329949300440
H         0.49290657875215   -3.43097962992307   -0.87387689081104
H        -0.96256586249766   -4.61515358164864   -2.49874795736263
H        -4.04888993108943   -1.82788109040291   -1.54179299050549
C        -2.53130032947758   -0.41446808737332    0.27626928974530
N        -1.58961274648566    0.05878366795180    1.12126240402349
C        -1.88454705115162    1.11489257056990    1.87658968161764
C        -3.10176997254783    1.76368931229245    1.83918364892434
C        -4.07655038908000    1.29921292972521    0.95968846941327
C        -3.78354002069999    0.20464543099847    0.17537796585316
H        -4.52340133919920   -0.16598924393223   -0.51448549801706
H        -3.28718410038131    2.61093567398971    2.47936066825131
H        -1.09173632898800    1.44986343518463    2.52738822954315
Ir        0.42150000000006   -0.81649999999959    0.91329999999999
B         0.43827163726919    0.56905495283796   -0.64132309495389
O        -0.14131676520360    0.23120444551245   -1.85073493824727
C        -0.21479325069422    1.38086559382531   -2.69968875079456
C         0.12987805405507    0.98112735779704   -4.13239938530023
H         1.06929849534706    0.43915810923520   -4.16207043361131
H         0.19489875762645    1.86370092765796   -4.76349285251996
H        -0.65054711626548    0.32972315657872   -4.51839143715109
C        -1.66510887887599    1.88261846641091   -2.64856898296532
H        -1.81151391600199    2.73163046490211   -3.30968836185784
H        -2.32293605548608    1.07284466019850   -2.95849445440419
H        -1.92937269262613    2.15922062348080   -1.62977925344505
C         0.79496457366622    2.36820565001987   -2.02614736670292
O         0.85941811572041    1.87848988254079   -0.67967881065986
C         2.20957717513293    2.24726764007588   -2.60628447279070
H         2.54204497553014    1.21618114255616   -2.51465912152037
H         2.24474526829970    2.57268031218774   -3.64199417017110
H         2.88230034403913    2.86629968589579   -2.01729243531586
C         0.36496565272964    3.83394466688616   -2.02983451264212
H        -0.55106658709297    3.97853073312713   -1.46562351792415
H         1.14485445068897    4.43453106204490   -1.56795439506353
H         0.21926204875222    4.17542201458152   -3.05151200212056
B         1.57678652464619    0.63024317226360    1.88474222360271
O         2.94878663930664    0.71521157746233    1.95222211194872
C         3.33498870833986    2.00518230632546    2.44682379548790
C         4.55532348389828    1.87137288023416    3.35590836330059
H         4.38443311694460    1.13609289208602    4.13509954934656
H         5.40667763930850    1.54532550330775    2.76391719147190
H         4.79059357047426    2.83166384231684    3.80695041384656
C         3.69658246898757    2.84935885369321    1.21878016539776
H         3.99328725395645    3.85612573410749    1.49768840468751
H         4.52097090512168    2.36814722871042    0.69764181013432
H         2.84409295132705    2.87175542715637    0.54463232772525
C         2.03160001995064    2.50396634028975    3.15769425332831
O         1.01444022286291    1.69839626666473    2.54841077427431
C         1.70456933091885    3.97978186662920    2.93666248954129
H         1.51230041777095    4.17310866978433    1.88665996831567
H         0.81021348283260    4.23555237169023    3.49952893010739
H         2.52570103415139    4.60233545484122    3.28145477746919
C         2.01220545505938    2.19951618432749    4.66130981951646
H         2.20050321286206    1.14257390779993    4.82977649337381
H         2.74743831120070    2.79818583384102    5.19034703518706
H         1.02331141943235    2.42916788203999    5.05126504003770
B         2.27819999999950   -1.33089999999958    0.17410000000071
O         3.04919085294046   -2.37583853935210    0.64443287527986
C         4.35614150236854   -2.33346973961530    0.05828975588333
C         5.28097190794229   -1.70239723156969    1.10503370048154
H         4.87628649121276   -0.73616973456127    1.39349209272248
H         5.28778750934121   -2.33916293726461    1.98613282357614
H         6.29568296772192   -1.60095409566807    0.73283682015979
C         4.82697226603870   -3.75518852893325   -0.24592114925849
H         4.92164151408750   -4.29945379849983    0.68995470113020
H         5.79455358190475   -3.73071327246911   -0.73933007684157
H         4.11443219681239   -4.28272864084104   -0.87107332522062
C         4.14054405755268   -1.41962271901830   -1.19792682952572
O         2.91964195496248   -0.73168154923762   -0.88581714489658
C         5.24731302323172   -0.39571889546614   -1.44275103603467
H         6.20193575073468   -0.89687566181140   -1.57696710521337
H         5.01746436471238    0.17032019237997   -2.34196070439244
H         5.30912518470850    0.29860345448396   -0.61220017898277
C         3.89537168889488   -2.21336565342809   -2.48857618325262
H         3.08035195910421   -2.91781953958907   -2.34629301321167
H         3.60384011961505   -1.51922356366499   -3.27341373312328
H         4.79174262281674   -2.74155522320664   -2.79909558310083
H        -3.29934542609185   -3.78019761152856   -2.83209707768309
H        -5.03909739622608    1.78326949574943    0.89176803889441
C         0.23590000000100   -1.68140000000060    2.96029999999828
C        -0.97478662764004   -1.99674922119181    3.50474798173631
C         1.12122197607523   -1.59229393556095    4.07737151691820
O        -0.90734390363719   -2.06890834762911    4.85932653257404
H        -1.93701064456019   -2.18668518950433    3.07065361024027
C         0.37715465068533   -1.82140344363851    5.18940572344629
H         2.16976968886793   -1.38458299201350    4.02588894403951
H         0.61846303002857   -1.84208346474867    6.23422844281520
