   95
 energy: -138.365195862093 gnorm: 0.000603043925 xtb: 6.4.1 (1a32961)
N        -0.91881320926079   -2.06836253518480   -0.31353979837458
C        -2.19228759900448   -1.64770247445178   -0.42374012768731
C        -3.08970553397499   -2.29222029940404   -1.28488055486633
C        -2.66977989151409   -3.37036382312246   -2.03289234863737
C        -1.34858704433881   -3.79305093232601   -1.90822261674580
C        -0.52275861655156   -3.10953484576497   -1.04076720478838
H         0.50938379137346   -3.40256562870009   -0.90892803152429
H        -0.97619757753022   -4.63336713727925   -2.47132461180089
H        -4.10885567264126   -1.95331397120683   -1.37029322736565
C        -2.56496062600269   -0.49940497949981    0.39425596624917
N        -1.59659980135631    0.02797085752033    1.17184621294731
C        -1.89176331501296    1.07351640639605    1.93983230027417
C        -3.14192200921976    1.65751624678828    1.98466875470018
C        -4.14983546589054    1.13179350705623    1.18153634497575
C        -3.85363393266325    0.04859010795137    0.38231589643281
H        -4.62067877085546   -0.36966933560705   -0.24789898737921
H        -3.32608757200562    2.49937079162147    2.63241692842961
H        -1.07373088053388    1.45446399121762    2.53207330618005
Ir        0.42150000000005   -0.81649999999976    0.91330000000019
B         0.39904247116398    0.55486865825399   -0.65194092768537
O        -0.20884531743606    0.21469771014848   -1.84834759694699
C        -0.32203745008679    1.36963392513484   -2.68638753149283
C        -0.02779464422573    0.98555998931076   -4.13436046336327
H         0.91669956708392    0.45648927661592   -4.20574220867028
H         0.00114579727924    1.87446372868409   -4.75932467954159
H        -0.81419328088905    0.32727731434416   -4.49581284672467
C        -1.77327029191286    1.85990981123038   -2.57737974884535
H        -1.94935748101032    2.71532183767041   -3.22274844902881
H        -2.43668378420548    1.04924974593020   -2.87263722596995
H        -2.00131552908443    2.12303520675691   -1.54633624268219
C         0.70246249791324    2.35982872271309   -2.04149020489327
O         0.80645263464233    1.86803247568019   -0.69802870621028
C         2.10043150121824    2.24349848559386   -2.66144507666403
H         2.43691970456728    1.21233297839760   -2.58489678664622
H         2.10603570353759    2.57432275613247   -3.69603426649702
H         2.78842068875666    2.86010598465063   -2.08786320136584
C         0.26769971749999    3.82394187251061   -2.03011761600489
H        -0.63278578011982    3.96389259267653   -1.44026318310646
H         1.05824534714770    4.42567585088272   -1.58829695801540
H         0.09266665686126    4.16743231319459   -3.04653918479772
B         1.58009798307474    0.64214783600892    1.86088496650241
O         2.95141698777487    0.74979662640777    1.89332434760883
C         3.32747479157811    2.04606398768224    2.38165387248541
C         4.58169641376646    1.93662657922835    3.24640853651230
H         4.45650372593887    1.19214921170598    4.02541223423316
H         5.41963631272545    1.63600426495639    2.62267937392754
H         4.80831861286882    2.89973850413682    3.69594517658679
C         3.62596549373132    2.90483413468300    1.14683301718076
H         3.91342183800441    3.91524698232547    1.42235459564594
H         4.43906875350615    2.44296355140662    0.59163549793191
H         2.74848748118144    2.91462993786626    0.50523082099801
C         2.03909097097888    2.51040575174075    3.13930175245917
O         1.01777657629689    1.69864306413409    2.54382366873520
C         1.68189120549625    3.98428477668019    2.95814593427294
H         1.45713636575960    4.19569243259602    1.91811810400438
H         0.79999748641316    4.21339702514852    3.55133672138909
H         2.50257400441787    4.61307754112542    3.29259700242072
C         2.07030383779596    2.17313798899729    4.63535447212266
H         2.28519879095833    1.11671140827317    4.77104484308515
H         2.80912264714008    2.77382985144635    5.15702219512732
H         1.08869317461239    2.37164330951098    5.05916890797729
B         2.27819999999889   -1.33090000000019    0.17410000000016
O         3.06214003672220   -2.36014406495631    0.65650266179485
C         4.36879971671747   -2.30708065636055    0.06887981754227
C         5.28566938799053   -1.65377118808513    1.10879221988202
H         4.86820863240566   -0.69026596472970    1.38745399573147
H         5.29958112565258   -2.28118874591241    1.99644464925112
H         6.29914976489179   -1.54348562470519    0.73572516573833
C         4.85819884769325   -3.72561983240890   -0.22110711014790
H         4.96024507017574   -4.25912868609907    0.72018819137493
H         5.82531565199631   -3.69298717429444   -0.71494997226448
H         4.15282282098030   -4.26903478594970   -0.84077861267431
C         4.14143599844247   -1.40920852452125   -1.19704113871164
O         2.90843049941391   -0.73845771182556   -0.89572130074602
C         5.23045424123535   -0.36804517219416   -1.44840547331872
H         6.19351412322294   -0.85311710332729   -1.58140255315278
H         4.98858114509875    0.18903215772037   -2.35001862972113
H         5.28063061556584    0.33119736784036   -0.62130144988102
C         3.91416972293565   -2.21842376978789   -2.48137545698217
H         3.11128997538658   -2.93588149413090   -2.33546286706430
H         3.61273479185914   -1.53588388356083   -3.27248704697921
H         4.82056305744221   -2.73345343389256   -2.78482559690538
H        -3.35125962937481   -3.87507366758157   -2.70073277477974
H        -5.14096899845027    1.55980011079981    1.18278880826302
C         0.23590000000087   -1.68139999999964    2.96030000000078
O        -1.03697375498559   -2.06439739318266    3.25014164129068
C         0.96144322710765   -1.64364028362147    4.11821783018708
C        -1.13430993470620   -2.22884288161212    4.59619666151454
C         0.07313811975455   -1.97589013711215    5.17384461088331
H         2.00183341613857   -1.40413480102575    4.19721499879935
C        -2.45010464924277   -2.62170669060692    5.17147096950525
H         0.30594827978864   -2.02944334220184    6.21877023040332
H        -3.11991157846757   -1.76310460933412    5.23061442328798
H        -2.30610395441090   -3.02034183527230    6.17167810977210
H        -2.92186131758980   -3.37613544038019    4.54456624589101
