   93
 energy: -138.900791710966 gnorm: 0.000246074123 xtb: 6.4.1 (1a32961)
N        -0.98325177576740   -2.01605390930867   -0.34081521460001
C        -2.20937061002051   -1.49027787217766   -0.50007912995993
C        -3.07082290503059   -1.95772048754995   -1.49775082543255
C        -2.66582342210510   -2.98465913545238   -2.32460391686953
C        -1.40045867235121   -3.53028576976406   -2.13771611502127
C        -0.60298349956508   -3.00750042063010   -1.13937655761566
H         0.39023728237479   -3.39453334517946   -0.96111161520424
H        -1.04300006239160   -4.33627993853921   -2.75741077031112
H        -4.04180174916810   -1.51260510108750   -1.63829203339513
C        -2.57086802829060   -0.40269380233105    0.40738953315381
N        -1.58739365119519    0.08391368771721    1.18821488108613
C        -1.86512081398003    1.07876507933867    2.02604722352858
C        -3.12107763351098    1.64146410050842    2.14721532320835
C        -4.14984188381953    1.14372331634880    1.35537508827238
C        -3.86805542371003    0.11569332591140    0.47935921822247
H        -4.65496682869239   -0.29231598427705   -0.13231852980097
H        -3.29299197179941    2.44065478612537    2.84951034268662
H        -1.03278582749574    1.43067018355525    2.61724415999434
Ir        0.42150000000000   -0.81650000000003    0.91330000000002
B         0.41061603702328    0.53935479311492   -0.66440101453968
O        -0.13770328041260    0.18582640367758   -1.88121124765791
C        -0.23963244587486    1.33929396282830   -2.72557108676389
C         0.13329981810872    0.96096600635679   -4.15624553237101
H         1.09277373331813    0.45563509234853   -4.18038518031737
H         0.17050902580753    1.84943459818240   -4.78111750972680
H        -0.61828726916211    0.28269822625196   -4.55268941979024
C        -1.70561429975917    1.79409971012193   -2.68645919009402
H        -1.86860650403633    2.64781199907072   -3.33735568047903
H        -2.33403753968276    0.96988184437416   -3.01767718368857
H        -1.99028441837711    2.04846826374674   -1.66737636907081
C         0.72944179896909    2.35292620591967   -2.03271650955196
O         0.77489497706318    1.86485932852163   -0.68300826877533
C         2.15817363453798    2.26201825631993   -2.58150791734517
H         2.50910816847850    1.23699561385014   -2.48839654161565
H         2.20852020213810    2.59413156089699   -3.61435727177211
H         2.80634842946495    2.89007416458352   -1.97533834595563
C         0.26481437153580    3.80747110331095   -2.04809557917193
H        -0.66933178218277    3.93082918770446   -1.50916467760248
H         1.01797927756068    4.42641707138418   -1.56662846797764
H         0.13885259526539    4.14499258643256   -3.07355675765786
B         1.61951485342963    0.63800612406074    1.82665763162566
O         2.93242082397233    0.93354494159566    1.60763138165872
C         3.30639231768543    2.14840422129772    2.27500565029975
C         4.62306762391432    1.92162647581544    3.01935934327479
H         4.56451395562395    1.02782863261563    3.63294328637443
H         5.41997531016442    1.77768181917805    2.29427603107749
H         4.86544577632950    2.78108599701329    3.63746375270743
C         3.51386856287882    3.19876277150229    1.17775501419821
H         3.76393615719013    4.16820384056817    1.59771664260544
H         4.32895399382684    2.86949160207207    0.53768848597562
H         2.61657968342980    3.26519156046794    0.56899723536944
C         2.07122652789545    2.44589426586875    3.20311771973225
O         1.08346343356930    1.50929388191089    2.74745832016760
C         1.49251827741159    3.85612541092166    3.06627764794349
H         1.14297894231171    4.03007052977478    2.05390089355037
H         0.64626533142701    3.95614140600922    3.74188141999332
H         2.23898953842124    4.59921495399858    3.33059908415432
C         2.32551097452071    2.16071543580215    4.68774550284072
H         2.70332394525955    1.15215959070015    4.82326375185690
H         3.03144895175598    2.87287887516723    5.10341345217678
H         1.38313624548988    2.24499248286259    5.22444245674434
B         2.27819999999975   -1.33089999999962    0.17410000000025
O         3.09193734175711   -2.27358091986947    0.76294108747516
C         4.38689249038018   -2.26494431494022    0.14511314793587
C         5.30746944541250   -1.46968106368720    1.07432368338458
H         4.89852460807215   -0.47317123848015    1.20914566981351
H         5.31226263149993   -1.95099427214805    2.04897801709453
H         6.32157091546007   -1.42388372515156    0.68967786684812
C         4.90089846453207   -3.69893260157966    0.02312853736586
H         5.04568736993166   -4.10085019620904    1.02239581572672
H         5.85099443085338   -3.71165545465058   -0.50334732512846
H         4.18945850574702   -4.33290991809858   -0.49569883630704
C         4.11160383676610   -1.53606564475219   -1.21658232170181
O         2.86734162487478   -0.85715204260887   -0.97237657327278
C         5.17039352916947   -0.51171059623946   -1.61864264999013
H         6.14372373418455   -0.98769736962657   -1.69714189674724
H         4.90742565874695   -0.08591711003568   -2.58372898197294
H         5.21145287353269    0.29174248553087   -0.89174729482825
C         3.87645550121226   -2.50414774389124   -2.38371939336658
H         3.09800825779790   -3.21771134343110   -2.12820365252322
H         3.54029665540957   -1.93453407247264   -3.24654016432899
H         4.78979242490651   -3.03144726028203   -2.64122519482845
H        -3.31798684197073   -3.35299615042492   -3.10174564503414
H        -5.14831327228037    1.54751150598436    1.42502550926089
C         0.23590000000145   -1.68140000000011    2.96030000000176
S        -1.35602399334290   -2.16661382671077    3.44308033609340
C         1.06248950038528   -1.67305354116974    4.06808516168122
C        -0.91140384809571   -2.27022313156028    5.11341373347923
C         0.39595852470751   -1.98167474535761    5.29511240084359
C         2.43666772222027   -1.41242675722183    4.05189832744970
H        -1.64803620455865   -2.53564210860618    5.84456626913337
H         0.89634155140823   -1.98545415610247    6.24784987946826
N         3.56801713386480   -1.23545250838659    4.16980883749034
