   92
 energy: -138.424442264930 gnorm: 0.000255094701 xtb: 6.4.1 (1a32961)
N        -0.94399573047178   -2.02500887211605   -0.34149366169624
C        -2.17663069729329   -1.52057892866426   -0.53356433720590
C        -3.06891339541419   -2.12265148877635   -1.42969885849813
C        -2.68195130495749   -3.24062822030664   -2.13603121988640
C        -1.39982516235482   -3.74481427003654   -1.93465906035318
C        -0.57947149635472   -3.10262904004946   -1.03066395738765
H         0.42132134620253   -3.46237477879667   -0.83736690359874
H        -1.05316616125433   -4.61637384199060   -2.46552272786626
H        -4.05847093685076   -1.72142406494962   -1.57263048178814
C        -2.51054116070026   -0.32525772458705    0.23221456816965
N        -1.56588008771985    0.12898170682823    1.08317423992688
C        -1.82871869384148    1.21537342669965    1.80720256507569
C        -3.01538635001349    1.91537106111135    1.72793130091453
C        -3.99173932862345    1.47079728477842    0.84106727944854
C        -3.73265303445804    0.34312434449866    0.09159578732449
H        -4.47517738986920   -0.01348139111943   -0.60247964464558
H        -3.17537129958939    2.78581308044233    2.34304376068224
H        -1.03771224466899    1.52836588210665    2.47139019166832
Ir        0.42150000000008   -0.81650000000003    0.91330000000004
B         0.43914968861981    0.56143015232741   -0.64641177318709
O        -0.08271532142522    0.21074051804026   -1.87496485914319
C        -0.15081941726282    1.36127797058970   -2.72603906284859
C         0.26942163891003    0.97461612526836   -4.14172298265008
H         1.22400783190520    0.45924630460959   -4.12890038589208
H         0.33879743888772    1.86037529460517   -4.76781617648224
H        -0.47390491343780    0.30272180646436   -4.56394083511722
C        -1.61457638045442    1.82415547322624   -2.74026762310514
H        -1.75170778457917    2.66848004005792   -3.40926375787277
H        -2.23697294233481    0.99805663643812   -3.07850335975472
H        -1.93185424859704    2.09623976709950   -1.73548310436080
C         0.79984645782340    2.37396159900459   -2.00631162973116
O         0.80858251148545    1.88670119589797   -0.65607492945145
C         2.24302152763959    2.28362482701442   -2.51633028432373
H         2.59238007713211    1.25953470466818   -2.40955814167631
H         2.32076008871293    2.61126137424074   -3.54892603437216
H         2.87359731684690    2.91599379062368   -1.89605094953596
C         0.33712980136362    3.82895543528292   -2.03454266930182
H        -0.61292241764441    3.95273140675033   -1.52416651850468
H         1.07585946231276    4.44689512715750   -1.52979406813365
H         0.24257234140694    4.16722941604251   -3.06316072914961
B         1.60340621529717    0.63658394960966    1.85781761735523
O         2.93853719681681    0.90773570749321    1.69978561712750
C         3.28661373667152    2.13718089299235    2.35278953089829
C         4.60945141098815    1.95977051028597    3.09897107978353
H         4.56828050303436    1.10824655535918    3.77061285543488
H         5.40233499129213    1.78103161974864    2.37675652945502
H         4.84679704410755    2.85763871140288    3.66269621248766
C         3.46552335874900    3.18060374543406    1.24392617887074
H         3.70057283140135    4.15933157517523    1.65109782757651
H         4.28029636964558    2.86021472428811    0.59840850786652
H         2.56033435016782    3.22223191536932    0.64402008167483
C         2.04472221641166    2.41650659180619    3.27319399831694
O         1.04874132708332    1.52651705518313    2.75038402630503
C         1.50738125014778    3.84660649003513    3.20734098964841
H         1.17724935755485    4.08810375709965    2.20232655044349
H         0.65511150938670    3.93341861654385    3.87696460749141
H         2.27171496111053    4.55137662654231    3.52237725999884
C         2.26766602381352    2.03868571647592    4.74291189665710
H         2.59924335359194    1.00785554162285    4.82625338187594
H         2.99588291907635    2.69673137227574    5.20655069337402
H         1.32170103913262    2.12952184017885    5.27190269781639
B         2.27820000000003   -1.33089999999916    0.17409999999963
O         3.09378792013503   -2.30399790181942    0.71626411899826
C         4.38136406749595   -2.28599188394785    0.08754276828174
C         5.32593042811928   -1.54885666293789    1.04339880882641
H         4.92306915985358   -0.56073677783900    1.24873750717340
H         5.36333122887116   -2.09607984517410    1.98275135910430
H         6.32963619236123   -1.47605652480019    0.63655764044183
C         4.87256872245528   -3.72045171248013   -0.10433380788198
H         5.01324545014392   -4.17446168153022    0.87320287772306
H         5.82100265181699   -3.72287335699394   -0.63395456152893
H         4.14957965702726   -4.31665890269140   -0.65104887093340
C         4.10573585277703   -1.49075385684657   -1.23613543821633
O         2.87152688912496   -0.81199984391396   -0.95226576230604
C         5.17506279788127   -0.46088156464221   -1.59571607806138
H         6.14391612539731   -0.94247647363594   -1.69414900892857
H         4.91776137128910    0.00678921924906   -2.54277920313359
H         5.22367275373772    0.31279967443888   -0.83717269826841
C         3.85402363259151   -2.40049942768964   -2.44597531501485
H         3.06716981197516   -3.11527355775408   -2.22099957574618
H         3.52017456872681   -1.78693677494283   -3.27928947161940
H         4.75953808344964   -2.92594879631983   -2.73364714243074
H        -3.35947200609910   -3.71299937745261   -2.83076916852262
H        -4.93000550235048    1.99469365795815    0.73993003161399
C         0.23590000000143   -1.68140000000026    2.96030000000172
C        -1.01313689148552   -1.91776626559133    3.43674239267771
C         1.17394361418932   -1.69330148873251    4.03503562937800
S        -1.07123977593457   -2.08269264441369    5.16425413013041
H        -1.93497466248322   -2.01059710499700    2.89881984323043
C         0.63063697517365   -1.87851573232420    5.26585927592057
Cl        2.86098468528272   -1.51413312611775    3.78667778210934
H         1.12729423734368   -1.91559063301972    6.21353362839320
