  105
 energy: -152.434643910872 gnorm: 0.000399979358 xtb: 6.4.1 (1a32961)
N        -0.93108541003256   -2.00238212954358   -0.39260482913568
C        -2.19145970358174   -1.54280517767826   -0.48660219327355
C        -3.06587309775409   -2.03040595025148   -1.46432909177822
C        -2.64024813140098   -3.00689388567565   -2.33899510415531
C        -1.33757497075696   -3.48213872400541   -2.22202805957135
C        -0.53040138151282   -2.94415924616173   -1.24084179507763
H         0.49085644947986   -3.27539568277662   -1.11844349820073
H        -0.96216894216534   -4.24789181388094   -2.88103684628105
H        -4.06643070538278   -1.63977784785675   -1.54985147160203
C        -2.57710636459312   -0.50769403530214    0.46730414253013
N        -1.59454709442631    0.00233949037355    1.23441213794338
C        -1.89568808102161    0.95648524882415    2.11103358201998
C        -3.17147476294244    1.45500991642136    2.28507225678056
C        -4.20003464016113    0.93011785034339    1.50953463263751
C        -3.89578951016606   -0.05647669803295    0.59583187093409
H        -4.68110182852813   -0.48485124286621   -0.00425756246830
H        -3.35862165307526    2.22648116384100    3.01434441291050
H        -1.06450083861256    1.33129398798256    2.68924551255989
Ir        0.42149999999998   -0.81650000000064    0.91329999999989
B         0.34932738408713    0.64602967126104   -0.57515064897191
O        -0.46049395991739    0.46752974685475   -1.68531462827614
C        -0.64037207067662    1.71586678348930   -2.36214084025819
C        -0.65118678245790    1.49337372418097   -3.87220779563816
H         0.21871084328478    0.92623317421240   -4.18629165371023
H        -0.67024084035420    2.44934030844240   -4.38941226775922
H        -1.54070951728845    0.92931796615632   -4.14287975594912
C        -2.00448239463240    2.26885257167947   -1.92288366364241
H        -2.23617712305833    3.19819946009243   -2.43472372591771
H        -2.77080448244642    1.53290688243576   -2.15904936480018
H        -2.01282046097770    2.42955359897957   -0.84651210198133
C         0.55494018988799    2.56685410145014   -1.82387058816014
O         0.84808500302677    1.92870841736110   -0.57339069722442
C         1.81057385651698    2.43087473667432   -2.69335781194694
H         2.05546417856126    1.37758173168836   -2.80746554675778
H         1.67290101455321    2.89743539004015   -3.66444158713001
H         2.64054401167167    2.91150999896499   -2.18086324576416
C         0.24580683331049    4.04522083484587   -1.59799333946937
H        -0.51315485498425    4.17541327877384   -0.83272951906992
H         1.14975051960893    4.55296500115212   -1.26996548916887
H        -0.09325992171533    4.49949192592687   -2.52547018921661
B         1.57731562472621    0.63194087036973    1.88132927720179
O         2.93381384908101    0.82104854166765    1.81263237167665
C         3.29683842239904    2.05556172041677    2.44758431364174
C         4.59950596736339    1.87571561213576    3.22483891779912
H         4.53251254312418    1.03623220241153    3.90839849989895
H         5.40686557292192    1.67781048074714    2.52481157916366
H         4.82990622579477    2.78067509724325    3.78051303491154
C         3.50728022045822    3.07857216153633    1.32439492911224
H         3.76142176014520    4.05783756230577    1.71882132036721
H         4.31868581145296    2.73192796116206    0.68833849767301
H         2.60644902510061    3.12976364060636    0.71819401252373
C         2.04116455238337    2.36877053741117    3.33006217351340
O         1.01610359476711    1.57980942391377    2.71094535483294
C         1.61395205058105    3.83518848280895    3.34299135795258
H         1.33160997873553    4.16193950541451    2.34776368140951
H         0.75351900844356    3.94933084518863    3.99780212698535
H         2.42318667384332    4.45642067490164    3.71704224929988
C         2.18134571257248    1.87004625433587    4.77426791764402
H         2.43535398076455    0.81337796410915    4.78184755838913
H         2.93433502738012    2.43581886818808    5.31408211213808
H         1.22467336078369    1.98469099964574    5.27881260001917
B         2.27819999999976   -1.33089999999890    0.17410000000083
O         3.24836452886396   -2.09047848067513    0.78935909825792
C         4.44694984863739   -2.10351598042257    0.00101177423340
C         5.41917431125451   -1.11580078412803    0.65385038318935
H         4.93353383338572   -0.14810108447261    0.73613678405780
H         5.64195360980992   -1.46286885735750    1.65943170969462
H         6.34473438905661   -1.03791568807813    0.09188090112920
C         5.05658750483712   -3.50527634480652    0.02563089999371
H         5.36356281565724   -3.73629602793132    1.04215357785739
H         5.92719477937831   -3.54465866864965   -0.62303274535754
H         4.33706688880631   -4.25520056080277   -0.28548791817857
C         3.94423099622048   -1.62461140474203   -1.40657675710180
O         2.68555137061307   -1.00571811695455   -1.10197487686247
C         4.84581823483944   -0.60570261099206   -2.10199182260349
H         5.83807237227158   -1.02048708102490   -2.25606262120133
H         4.41599709334693   -0.35541244687898   -3.06873964728041
H         4.91328438045569    0.30443322835194   -1.51614366689483
C         3.65975253515134   -2.78117161286769   -2.37500242578841
H         2.99506310563654   -3.50530100969174   -1.91217177608317
H         3.16208699695024   -2.38152781484758   -3.25510834008585
H         4.57996622137669   -3.27020713720797   -2.67965160094892
H        -3.30313203372597   -3.38998456510850   -3.09986672266117
H        -5.21408044744513    1.28293082035953    1.62065881837240
C         0.23590000000352   -1.68139999999871    2.96029999999997
S        -1.32460320447175   -2.10388930213327    3.60803912263085
C         1.17113344099958   -1.74649447342018    3.95042419923593
C        -0.68655937969602   -2.27788997406445    5.20166674402398
C         0.66270980077279   -2.06702465518806    5.24109270870866
H         2.20966213896480   -1.55307824572659    3.74822887979293
H        -1.34639834156980   -2.55745448987374    5.99868292248676
C         1.50129926674887   -2.20801158546570    6.43050752024921
C         1.01499800161400   -1.93798496625334    7.70796221215988
C         2.82285825612163   -2.63843677544711    6.30834342986646
C         1.82170316603366   -2.09195694371554    8.82013112667110
H        -0.00116969810372   -1.59103548334760    7.82709040676350
C         3.62343606937014   -2.78993315275823    7.42250746286765
H         3.21766963095974   -2.87051841456746    5.33046896931144
C         3.13790628421453   -2.51971215278055    8.69747429934014
H         1.42185111706849   -1.87333858941496    9.80075342675140
H         4.64336930397180   -3.12866013017002    7.30376938371724
C         4.01271717869805   -2.71103565546567    9.89988408737299
H         3.61308993410631   -2.18122418299088   10.76096890259225
H         5.02156494849951   -2.35487557309538    9.70105647646680
H         4.07561371440415   -3.77082363397337   10.14920175352734
