  105
 energy: -152.428298745844 gnorm: 0.000728427769 xtb: 6.4.1 (1a32961)
N        -0.99685862437858   -2.26714026007698   -0.10000194284302
C        -2.28784064307521   -1.90388922097501   -0.15554501981371
C        -3.27211772163964   -2.78962730364408   -0.60994372154948
C        -2.90672894822774   -4.04591134632423   -1.04545134727225
C        -1.55855607463023   -4.39086562554923   -1.02772265820609
C        -0.65025855595163   -3.47110375126343   -0.53979832850012
H         0.40667430419747   -3.69075537467779   -0.49515989047756
H        -1.22647910569777   -5.35707351877551   -1.37101979500160
H        -4.31162025296778   -2.50407704876756   -0.59968259511393
C        -2.60193379343155   -0.55026119238621    0.29310437211690
N        -1.65156648421992    0.08381216547740    1.00607209084602
C        -1.91196844593238    1.30825652662937    1.45699288729709
C        -3.09353851949137    1.97748370939000    1.20884226182139
C        -4.06555828581855    1.35004376507708    0.43597771148367
C        -3.81449166047842    0.07322442611590   -0.02154173966566
H        -4.54358413919883   -0.43117685680205   -0.63520304552516
H        -3.25180065759001    2.96690759482865    1.60650569250066
H        -1.13002308320431    1.75545794243096    2.05005832933139
Ir        0.42149999999997   -0.81650000000027    0.91329999999946
B         0.31152861996321    0.29366907049959   -0.83416239916896
O         0.20502931853621   -0.35933549287286   -2.04886539942728
C        -0.27482596584044    0.54467646359623   -3.05095440371561
C         0.43508028937165    0.27408116588278   -4.37548141482826
H         1.51284297759848    0.29849568380000   -4.25417163150814
H         0.13538750102775    1.01046833167839   -5.11675064867303
H         0.15474024920792   -0.71522797787161   -4.72995928257897
C        -1.77575979778857    0.26925664103814   -3.22692390225319
H        -2.19723108233277    0.88013506332861   -4.01982170763597
H        -1.90965351381339   -0.78120729801224   -3.47805840497252
H        -2.30505842323944    0.46232764192705   -2.29616572524236
C         0.01235828084388    1.94279080815938   -2.41074098222543
O         0.07368432594152    1.63985514340914   -1.01003784240404
C         1.38427158320814    2.49779829584208   -2.81070460595869
H         2.15264700037408    1.76781432153022   -2.56794086884664
H         1.41635272249226    2.74468960935755   -3.86793098682964
H         1.57984147090527    3.39538101017572   -2.22944409836820
C        -1.05862310334933    3.00172710499052   -2.66424246879587
H        -2.00867119003858    2.71403478588469   -2.22392240130728
H        -0.74635021928528    3.93897109719556   -2.21032730880142
H        -1.18568374025655    3.15397863780216   -3.73289976456347
B         1.39845872101870    0.85647761320691    1.68703299320392
O         2.53147807584817    1.47757118835726    1.24035660455525
C         2.71071931122779    2.74249623435556    1.88347882178772
C         4.18151177691930    2.90950593650121    2.26445173881045
H         4.51934284350119    2.08514117921366    2.88301118853394
H         4.77595181395517    2.91395909623297    1.35496552307148
H         4.33125568320729    3.84847284587305    2.79034946771791
C         2.33405852520573    3.81595057598581    0.85412189498474
H         2.40657037267952    4.81543021549994    1.27264677309133
H         3.01728774956827    3.73200447448427    0.01262474279236
H         1.32858727048000    3.62893240993478    0.48564216369314
C         1.71614330897636    2.66486671712357    3.09682750586918
O         0.85978867670496    1.57043064238434    2.74148898202343
C         0.86768198449340    3.91860988798058    3.31090315476998
H         0.26402619034856    4.13565711298274    2.43548944970656
H         0.20141867187670    3.75434692009401    4.15443347064636
H         1.50760061725621    4.76894238476767    3.53012217813716
C         2.39709669743085    2.29296561401453    4.41992029492580
H         2.94803173683869    1.36257479913753    4.31110984576373
H         3.06433448695643    3.08294077908312    4.75066826170616
H         1.62919799599181    2.13898150322934    5.17428926809844
B         2.27819999999830   -1.33089999999998    0.17409999999885
O         2.45207635398009   -2.67310190543955   -0.14900615454536
C         3.74269647540281   -2.89527178680465   -0.72421655000982
C         4.60545388465683   -3.57435343334454    0.34718871202248
H         4.66566522950218   -2.94600954021810    1.23189080236200
H         4.12992356927479   -4.50897157362324    0.63512159482489
H         5.60104762823953   -3.78638933888040   -0.02978224431661
C         3.60563233615720   -3.83513919586728   -1.92254589242973
H         3.29184948689097   -4.81394437242629   -1.56773131545860
H         4.55944405630600   -3.93789063630430   -2.43213371645884
H         2.85688154601498   -3.47017445922707   -2.61774843860209
C         4.21229357621359   -1.43992818846374   -1.06909076720437
O         3.36616166480441   -0.62045998480668   -0.24824561513718
C         5.67705380150572   -1.14569544352349   -0.75665850886593
H         6.32087377826593   -1.79821318453311   -1.34019830606628
H         5.89077645246536   -0.11244464917519   -1.01523069085031
H         5.88157692127090   -1.28134733769570    0.29907555122055
C         3.91493259604434   -1.05280581213098   -2.52358995901825
H         2.85397709210730   -1.18572441403820   -2.72110410689821
H         4.15641243425358   -0.00063799060395   -2.65561679280843
H         4.50455416000413   -1.64102897759680   -3.22027194071103
H        -3.65361234564840   -4.74468289690155   -1.39091887693888
H        -4.99390047954316    1.84732793392474    0.19810891948230
C         0.23590000000114   -1.68140000000583    2.96030000000289
C        -1.06471152586312   -1.76317177019869    3.33442614771128
C         1.10765860210389   -1.83179476529022    4.09670247152155
S        -1.29078133763640   -1.89228717745264    5.05058594012800
H        -1.95276377632452   -1.76058642796514    2.73456532334186
C         0.41005023591057   -1.92546778289624    5.26807937131383
C         2.56868911180879   -1.97639130360746    4.10585139792071
H         0.80114134022196   -2.00057331131760    6.26418246619335
C         3.15719041837462   -2.88108835563418    4.99402227102129
C         3.40959159305601   -1.23388491430390    3.28315836373556
C         4.52818543075607   -3.02671278642122    5.06179037009427
H         2.52870542238614   -3.48955923992586    5.62816018903897
C         4.78364742627371   -1.38121542772382    3.36102811216801
H         2.98439227501229   -0.54107081398972    2.57710176997214
C         5.36925579286133   -2.27434799117086    4.24812981157955
H         4.95606801950266   -3.73639602414427    5.75615017002783
H         5.40804861958729   -0.77768007657595    2.71665280422596
C         6.85686628361613   -2.44368621821055    4.32671585282636
H         7.20258875901801   -2.30590898078591    5.35006284259699
H         7.36307643161373   -1.72627828940308    3.68599076133655
H         7.13737533622392   -3.44886993861101    4.01317578075536
