   95
 energy: -141.592727440966 gnorm: 0.000281336788 xtb: 6.4.1 (1a32961)
N        -0.90988831805997   -2.01205567591676   -0.37649850517429
C        -2.14532539477308   -1.51493814664726   -0.56663092732546
C        -3.02300405897158   -2.10378795026375   -1.48518166084807
C        -2.62211203065996   -3.20591339990520   -2.20843332431903
C        -1.33977334701341   -3.70740545835112   -2.00217069671684
C        -0.53168308728003   -3.07489161793361   -1.08083006293009
H         0.46956683130956   -3.43119629374901   -0.88294419235700
H        -0.98404427686654   -4.56933466550499   -2.54290288634820
H        -4.01323124867948   -1.70524269442135   -1.63212473926960
C        -2.50393541217581   -0.35094769771135    0.23550186468697
N        -1.56427767922601    0.10843943489184    1.08838059441428
C        -1.85897464008381    1.15052212789359    1.86176522602983
C        -3.07667265843442    1.79979374905861    1.83530494984855
C        -4.04865925090983    1.35218763953425    0.94597870049337
C        -3.75415768175074    0.27140033110327    0.14250542988682
H        -4.49511764139694   -0.09012135223483   -0.55086041783562
H        -3.26340168814323    2.63234393690182    2.49403135045984
H        -1.06808796919083    1.47202290673615    2.52199150576373
Ir        0.42150000000000   -0.81650000000005    0.91330000000012
B         0.45600060188775    0.58703292908680   -0.62577235482443
O        -0.12120465948307    0.28447408197377   -1.84396319829148
C        -0.19499766028567    1.46060434872386   -2.65737735228355
C         0.15056927160114    1.10619145674552   -4.10154724030573
H         1.09341050528863    0.57167426901636   -4.14959195440774
H         0.20847803088297    2.00817210245794   -4.70518830280250
H        -0.62621796204346    0.46163965844132   -4.50600658681187
C        -1.64547623653535    1.96004273487009   -2.59277157780906
H        -1.78943248689767    2.83104180315165   -3.22506019645485
H        -2.30288470495459    1.16197331630469   -2.93249858179559
H        -1.91338190738539    2.20249305293153   -1.56618245742243
C         0.81310237450263    2.42787234403025   -1.95242043516157
O         0.87737028885158    1.89563506478658   -0.62168924601402
C         2.22815217425568    2.32729716198699   -2.53462557532792
H         2.56084300855082    1.29367739556368   -2.47954847910826
H         2.26368366969732    2.68879657515029   -3.55816327453037
H         2.90007974044804    2.92564434850449   -1.92379739363963
C         0.38089084626651    3.89219344043522   -1.90881895000211
H        -0.53695249763910    4.01686412988940   -1.34273184971218
H         1.15866136913645    4.47807603696853   -1.42507707950807
H         0.23776168972343    4.26707671674205   -2.91904224592182
B         1.58067436769912    0.62184760714477    1.89444025554264
O         2.95185582007075    0.71204909526314    1.95131913394767
C         3.33740190263494    1.97967805467535    2.50412079870788
C         4.55960421107634    1.80479065774912    3.40343704485094
H         4.39280142347367    1.02799572036099    4.14199630618074
H         5.41285119948156    1.51633401133498    2.79500238643347
H         4.78909170196752    2.74064086486202    3.90558866664706
C         3.69462630265393    2.88098953833801    1.31647994010269
H         3.99071749097691    3.87358491377696    1.64263008303997
H         4.51850826844023    2.42643812324519    0.77099553752810
H         2.84046558136091    2.93538300186120    0.64626876875913
C         2.03564317437204    2.44133333257118    3.24239708790824
O         1.01817633861837    1.66080504168862    2.60003667281086
C         1.70398083928504    3.92488469660847    3.09426594327980
H         1.51770276662091    4.17368020748987    2.05493799141525
H         0.80530456193170    4.14766957617691    3.66421548572478
H         2.52053111633863    4.53110918345647    3.47705226697902
C         2.02027419974816    2.06517469164362    4.72945065867939
H         2.20803880744851    1.00156289788049    4.84671675323634
H         2.75607891863360    2.63794817388042    5.28525098364292
H         1.03163153182820    2.27542465938016    5.13080287439673
B         2.27819999999871   -1.33090000000042    0.17409999999999
O         3.07092814060048   -2.34829626585766    0.66483211981538
C         4.37068075133387   -2.30457277071685    0.06106573994610
C         5.30260639212983   -1.64833403685775    1.08560662896519
H         4.89358082624685   -0.68099268141642    1.36331370076780
H         5.32642009536359   -2.27114260083216    1.97632601713814
H         6.31150136915467   -1.54416050727561    0.69886129870181
C         4.84961483179285   -3.72774034897767   -0.22338274329324
H         4.95895107821109   -4.25500091591837    0.72059586983133
H         5.81143438466084   -3.70428078532881   -0.72785629691324
H         4.13475789335047   -4.27210158611923   -0.83123786616452
C         4.13198108075214   -1.41591347304444   -1.20958443340900
O         2.89911637753090   -0.74516080773092   -0.90413266084058
C         5.21776321228236   -0.37463318299559   -1.47518184110062
H         6.18200463637050   -0.85887618824332   -1.60185037786691
H         4.97605277954330    0.16953540131654   -2.38470458500174
H         5.26647627414403    0.33651054581610   -0.65806080898502
C         3.89727989549189   -2.23405985725681   -2.48653826634851
H         3.09496554396591   -2.95021261955317   -2.33147153214268
H         3.59190294164961   -1.55748745139384   -3.28116042487296
H         4.80183138760200   -2.75150778153790   -2.79124192256552
H        -3.29030784629160   -3.66887681191853   -2.91855782391589
H        -5.01236097861973    1.83496949921864    0.88629641081272
C         0.23589999999953   -1.68139999999829    2.96029999999958
C        -0.94403452221936   -2.06499505008163    3.50597925847177
C         1.23041028331534   -1.56571679747684    3.97988295618641
S        -0.89856167059474   -2.20509984059067    5.25533687512787
Cl       -2.41965249865808   -2.45368360665750    2.70727073932052
C         0.79712418265585   -1.79554213514116    5.24269552852367
H         2.24991505818574   -1.32624908533763    3.73633605833201
C         1.56989249711549   -1.74484582733633    6.51358433026155
H         2.62189011138573   -1.58450246567781    6.29301219245709
H         1.46032480539507   -2.67671843260682    7.06535058546503
H         1.21353920052758   -0.93497976787261    7.14903684123692
