   92
 energy: -141.730975795840 gnorm: 0.000286812618 xtb: 6.4.1 (1a32961)
N        -0.92979788827877   -2.01293862288740   -0.38552281330449
C        -2.14664016983944   -1.48655010215215   -0.61386268744155
C        -2.98835992709384   -2.01950833829502   -1.59768333669438
C        -2.56890163379055   -3.09523081326763   -2.34998691600063
C        -1.30761137881013   -3.62904660000350   -2.10294776594824
C        -0.53590084164649   -3.05231544669170   -1.11561688344481
H         0.44871324510695   -3.43532902368080   -0.88825768336535
H        -0.93789473484415   -4.47039652166858   -2.66576206732915
H        -3.96090199431055   -1.59314518476193   -1.77954297951169
C        -2.51692780515005   -0.33363289078143    0.20046128808266
N        -1.58750182295166    0.11507308223528    1.07016554101325
C        -1.87770106551884    1.17007441379729    1.82824508935538
C        -3.08361178544007    1.83918740605452    1.77416635462280
C        -4.05097400942149    1.39200629166469    0.87915255380205
C        -3.76039800464236    0.29972098959828    0.08954921449099
H        -4.49847633432358   -0.05992883616171   -0.60757252206661
H        -3.26604531472066    2.68493124090076    2.41703770297977
H        -1.09411840788861    1.48358769769110    2.50133833875109
Ir        0.42150000000011   -0.81650000000009    0.91329999999996
B         0.42856120781449    0.58168059720012   -0.63175065472781
O        -0.16177531609281    0.28792867826869   -1.84369765995112
C        -0.21988986112430    1.46517025781071   -2.65904863227377
C         0.11914349484499    1.10407178340363   -4.10263556567140
H         1.05042676071484    0.54978736488496   -4.14897879270434
H         0.19790305795779    2.00519560317065   -4.70508113266687
H        -0.67107042870655    0.47730196598257   -4.50894226410767
C        -1.66139904431298    1.98898039487623   -2.59310713898094
H        -1.78945461180340    2.86100036988120   -3.22734130947813
H        -2.33353821439485    1.20284368508304   -2.93151102260933
H        -1.92420259252072    2.24030944165610   -1.56723839691591
C         0.80426847720867    2.41668293188088   -1.95731458171116
O         0.85262197701467    1.88931335860605   -0.62266537386802
C         2.21837279743198    2.28091155822491   -2.53363534736074
H         2.52365008674343    1.23847017456516   -2.48497517786640
H         2.26768162183823    2.64730790523982   -3.55474284194321
H         2.90274841984392    2.85806988551415   -1.91661786880372
C         0.40294210305963    3.88977176473821   -1.92409661827039
H        -0.50931006266521    4.03927112960929   -1.35455564360110
H         1.19576308354759    4.46478108156634   -1.45157639065150
H         0.26139533637350    4.25814345340649   -2.93682714305222
B         1.57565954358092    0.64804596730203    1.86818110290569
O         2.90687889299114    0.92506285088220    1.72824168363866
C         3.23601592201530    2.17119440401938    2.36234663814090
C         4.54724528901194    2.02408515824703    3.13327832143271
H         4.50607475679917    1.19196147880728    3.82747021756934
H         5.35042618337196    1.82817218195674    2.42836848492269
H         4.76913583206389    2.94082880897576    3.67194927764445
C         3.42805191823531    3.19151858706212    1.23424233226404
H         3.64455492290680    4.18104867524380    1.62479417757079
H         4.26130459247251    2.86577842850942    0.61583079162099
H         2.53662991784009    3.21175769076677    0.61345464001507
C         1.97452308623480    2.46102294412951    3.25347475271492
O         0.99770194368852    1.53852583905055    2.74439871997680
C         1.41502262156735    3.87898986344302    3.12981072310433
H         1.09661752612033    4.07966106280761    2.11197730484754
H         0.55108023903457    3.97666108406659    3.78329317656677
H         2.16293261185174    4.60677147952468    3.43101999878665
C         2.18071264146136    2.14100234226796    4.73839511387181
H         2.53408408795822    1.12289534825356    4.86793730398893
H         2.89080184890175    2.82811607651117    5.18723594664213
H         1.22649645220867    2.23475765244621    5.25245898245524
B         2.27820000000058   -1.33090000000108    0.17410000000078
O         3.19956600616350   -2.11767466550752    0.82115903024616
C         4.43194764065123   -2.15867919272634    0.08638802871429
C         5.40086871796872   -1.20130409973069    0.78544112520802
H         4.94056290366015   -0.22052253341486    0.85583824859317
H         5.57078603808919   -1.56037363890013    1.79737742014053
H         6.34990977940812   -1.14615954396507    0.26231905626796
C         4.99949327543500   -3.57610206135563    0.13375119071744
H         5.24432197520828   -3.81455369807894    1.16508024574257
H         5.90205524241741   -3.63656335018461   -0.46727290261058
H         4.27867609810423   -4.30611643315787   -0.21908217736289
C         3.99633952667041   -1.65943710900029   -1.33627355072438
O         2.74326516794889   -1.00047365916913   -1.07632405052500
C         4.95920419991115   -0.67046381402752   -1.98970989992466
H         5.94209722058250   -1.12017843449950   -2.09697982493382
H         4.58572426419578   -0.40659271220326   -2.97611978564912
H         5.03300334118759    0.23592325780467   -1.39887694522371
C         3.70878639558315   -2.80315340807605   -2.31762500559982
H         3.00149057149475   -3.50372937938302   -1.88255944567792
H         3.25990908106350   -2.38669922613295   -3.21608181267206
H         4.62302571777178   -3.32339083383999   -2.58577832144574
H        -3.20596046765895   -3.51121939666029   -3.11551311125861
H        -5.00735069540729    1.88661960046598    0.80286618019076
C         0.23590000000456   -1.68140000000095    2.96029999999751
C        -1.10772549052892   -1.87144188951954    3.40057654721310
C         1.08625551729852   -1.76804209838527    4.01257039879080
C        -1.22527648264032   -2.02838636858035    4.74391029228684
H        -1.95914067504180   -1.89315330433511    2.74497368956357
I         3.15945339622783   -1.76449345048881    3.99894763733788
S         0.30294487078428   -1.99788767957636    5.55693926876745
Cl       -2.68788637420758   -2.23643546186117    5.62402693810834
