   96
 energy: -137.732264654951 gnorm: 0.000255734837 xtb: 6.4.1 (1a32961)
N        -0.87696244972070   -2.02210138179908   -0.38986227626068
C        -2.13809229680682   -1.57215814728593   -0.55269532703749
C        -3.00172087605071   -2.17224691125705   -1.47958926118019
C        -2.56286940735882   -3.22871431919198   -2.24480527830786
C        -1.25434724840531   -3.67843845751200   -2.07048500664093
C        -0.46469426734220   -3.04462258459110   -1.13626985721165
H         0.55330250301098   -3.36457809743186   -0.96208689003055
H        -0.86790548537004   -4.50354083455918   -2.64677898487880
H        -4.01092764097263   -1.81340335415839   -1.59979354143742
C        -2.52741895065764   -0.44477945691625    0.27882046406403
N        -1.59298288089191    0.01905145941738    1.13915310745801
C        -1.90960742067856    1.04210199698657    1.93108751400547
C        -3.13751687480210    1.66911574812958    1.91451668238480
C        -4.10499733753388    1.21570995095294    1.01924580520147
C        -3.79215631966249    0.15380654274237    0.20041816719232
H        -4.52631799883392   -0.21056776482904   -0.49928912400102
H        -3.33958177535343    2.49046359790497    2.58308072310833
H        -1.12412656199369    1.36653006958495    2.59595183668125
Ir        0.42149999999996   -0.81650000000005    0.91330000000004
B         0.42248667925416    0.62806666484506   -0.59393091872132
O        -0.24977048816787    0.36668648894653   -1.77741430818440
C        -0.33069872784349    1.55507942821092   -2.56861237329569
C        -0.12739838965327    1.20928608707955   -4.04178469741333
H         0.77610201249991    0.62394484690365   -4.17752329642893
H        -0.06760645177387    2.11834976893748   -4.63485750116409
H        -0.97096251410150    0.61756750217537   -4.38981707306067
C        -1.74200239877511    2.12894214128214   -2.37370898374423
H        -1.89620322520453    3.01226377511588   -2.98656288061917
H        -2.46845845185936    1.36914861849543   -2.65615375994518
H        -1.90406945076335    2.37481710249496   -1.32593753580390
C         0.78026566759806    2.45789478969114   -1.94023974613697
O         0.90815724738778    1.91732460513747   -0.61925459458984
C         2.14098384266880    2.27575612455956   -2.62433831267010
H         2.40949686885234    1.22219275186379   -2.60549825460779
H         2.12859367086586    2.65066699763893   -3.64393045009845
H         2.89182156285949    2.81881006140604   -2.05487494194290
C         0.43979012210023    3.94520198803237   -1.86783243261428
H        -0.41756707548192    4.12190585510239   -1.22575782334730
H         1.28896898868485    4.48502669745694   -1.45558376368183
H         0.23180798665978    4.32806924660501   -2.86393712150125
B         1.55442174640770    0.62963305625703    1.90501939058781
O         2.92771883832723    0.72748637572317    1.97492635682798
C         3.30321112057323    2.00849080138789    2.49848293423628
C         4.52214680737397    1.86360751276189    3.40853721802603
H         4.35701945276971    1.10394950994172    4.16499876864150
H         5.37951412216889    1.56420821328438    2.81120482680535
H         4.74438929939430    2.81344560138184    3.88762829814222
C         3.66395952086886    2.88495921009532    1.29267300205552
H         3.95031764675941    3.88756416028093    1.59681626175885
H         4.49584730717157    2.42361559852006    0.76504583216830
H         2.81516699727417    2.91604863589352    0.61417755245155
C         1.99458682259562    2.48071032300448    3.21697358658640
O         0.98469804212364    1.68738949420684    2.58297259353401
C         1.66200077134114    3.96119796677394    3.04027127213841
H         1.48097413572757    4.18838665873344    1.99508601372527
H         0.75947301451454    4.19386333562305    3.60025942435898
H         2.47577447666339    4.57653551416809    3.41476066634239
C         1.97121972732128    2.12999048137469    4.71060440829476
H         2.16616180253928    1.06926017401084    4.84066162899918
H         2.70033312668319    2.71546064104327    5.26237151998676
H         0.97824002356997    2.34052343952141    5.10094004111783
B         2.27820000000034   -1.33089999999995    0.17409999999995
O         3.10418090172954   -2.31132555758974    0.68914289536091
C         4.38945742346142   -2.26397776830158    0.05937807454890
C         5.32550095191989   -1.53811448689642    1.03227197747947
H         4.89220716930489   -0.57330462171077    1.28039540618222
H         5.38851802126258   -2.12137803723392    1.94736802598762
H         6.32168994855752   -1.42035568013624    0.61700746407142
C         4.90039025431896   -3.68663577329996   -0.16915418567446
H         5.04644231812471   -4.16474066039538    0.79579932930868
H         5.84880583760114   -3.66262361803260   -0.69872690310062
H         4.18593130592403   -4.27815750725836   -0.73184020726144
C         4.10541374527547   -1.44160777969764   -1.24605949771638
O         2.86576277292988   -0.78427681306563   -0.94663992053461
C         5.16224058004552   -0.39112245837063   -1.58391143210115
H         6.13447900980415   -0.85973166004301   -1.70976063851271
H         4.88825293586227    0.10477922378699   -2.51179345244537
H         5.21217451059148    0.35875798625079   -0.80209018463097
C         3.86577266194604   -2.32538527114486   -2.47823208839253
H         3.08960577184011   -3.05691037190347   -2.27050164500845
H         3.52172716358595   -1.69608065598413   -3.29575064917371
H         4.77793764397006   -2.83091913416017   -2.78083511335528
H        -3.21797254075399   -3.69771036462712   -2.96339346637600
H        -5.07677514417225    1.68353376988233    0.96776622012932
C         0.23590000000107   -1.68140000000039    2.96029999999927
C        -1.02606845480007   -2.01251089953444    3.51091085892566
C         1.10470311356989   -1.61438084878118    4.02475606806607
C        -0.87673764391919   -2.08504510617103    4.87127837394515
H        -1.94271350337216   -2.17634527679031    2.97532594742028
N         0.42435341495927   -1.84649417978815    5.17981616958173
H         2.15910202897166   -1.42415185034129    4.02136644444349
H        -1.60016514143278   -2.29602755550030    5.63570947095304
C         0.97510752675606   -1.81338729157029    6.50645977848359
H         2.05315640531977   -1.95334261535271    6.45275791051557
H         0.54184995495839   -2.61144767231943    7.10969992307928
H         0.76730731984364   -0.85602234027655    6.99228674988541
