  108
 energy: -157.550142305673 gnorm: 0.000205003396 xtb: 6.4.1 (1a32961)
N        -0.87810913972972   -2.00760864992325   -0.42622640002266
C        -2.12413079776921   -1.52857607738572   -0.60342666758819
C        -2.94628580643456   -2.02062150740414   -1.62476433557953
C        -2.48320816105978   -3.01299547337083   -2.46044571505670
C        -1.19622647945765   -3.50581170027253   -2.25925013747117
C        -0.44306058289435   -2.96932426355723   -1.23628979301433
H         0.56101827847039   -3.31984516815010   -1.04318552968052
H        -0.79412138525147   -4.28473604562682   -2.88648828719318
H        -3.93673469418516   -1.62257629918068   -1.77219251164571
C        -2.54335222269549   -0.47220555339316    0.30928597343930
N        -1.60976445936798   -0.01413782736375    1.16982651082153
C        -1.94586759185354    0.95005912060070    2.02298996476913
C        -3.20275874615170    1.51781932735990    2.07535586558149
C        -4.17629640705824    1.05943668178335    1.19153840247119
C        -3.83959764327406    0.05807007424319    0.30645535822132
H        -4.58259876800059   -0.31576558699498   -0.37833134099766
H        -3.41984538003551    2.29491244798104    2.79043183186100
H        -1.15496843055011    1.27895581011410    2.67926506553325
Ir        0.42150000000011   -0.81650000000006    0.91330000000016
B         0.41140447769905    0.62415369994763   -0.59593579590680
O        -0.27480059025099    0.37766036240952   -1.77396621077772
C        -0.37959247211164    1.58161157180099   -2.54022128157810
C        -0.20066262240000    1.26667568844725   -4.02310144094351
H         0.70790774585760    0.69751874813109   -4.18885907576662
H        -0.16581467172662    2.18770361650683   -4.59919266108955
H        -1.04287105303670    0.66943483208619   -4.36468262761854
C        -1.79223247687657    2.13773570926189   -2.30761465848628
H        -1.96398638569646    3.03537998530807   -2.89418630844639
H        -2.51650255431382    1.37927875527142   -2.59857115124855
H        -1.93812506538001    2.35442226366281   -1.25112187677063
C         0.73482588897728    2.48094436160617   -1.91276268381257
O         0.88936144253114    1.91408473738554   -0.60471733494958
C         2.08517111003779    2.32373064505720   -2.62239028031536
H         2.36050542757761    1.27187708062543   -2.63374840268686
H         2.05324596573743    2.72318989386729   -3.63203364970157
H         2.84163464540687    2.85772817707709   -2.05204156872432
C         0.38302407695523    3.96312572078268   -1.80297662074765
H        -0.46557685818156    4.11814339481435   -1.14390580750502
H         1.23395089261823    4.50135816003318   -1.39245948945261
H         0.15632760508834    4.36549847889984   -2.78711146083014
B         1.54254961625538    0.64455132777147    1.89862855047600
O         2.90896707905565    0.77150367490690    1.96729584277959
C         3.25694093769990    2.05079993530529    2.51640873857919
C         4.46641554271533    1.90810294222672    3.43876005456297
H         4.29980158446096    1.13940357124138    4.18594615909823
H         5.33349079482464    1.62349945795476    2.84826390210489
H         4.67365788533418    2.85464847349418    3.93065572146120
C         3.61904576904600    2.94921525363991    1.32754025997884
H         3.87884907864852    3.95338666619914    1.64907625498038
H         4.46965960653455    2.51220510959179    0.80946615620400
H         2.78124367799005    2.97120075092256    0.63525298366742
C         1.93240749156706    2.49226088278863    3.22781488315620
O         0.94364867662074    1.67721382556658    2.58585493747182
C         1.56703907647384    3.96476193902652    3.04744488166590
H         1.39193095251698    4.18879904604181    2.00062515867658
H         0.65382004850984    4.17527759844189    3.59873242938827
H         2.36162733403839    4.59855078573640    3.43173149181609
C         1.90499883246590    2.14479255580899    4.72224521026168
H         2.11709284672070    1.08876606290240    4.86478220893834
H         2.61847697298964    2.74673234746399    5.27656547171988
H         0.90634660859188    2.33788845990624    5.10758774650212
B         2.27819999999757   -1.33090000000041    0.17409999999903
O         3.11141148775317   -2.29634147931317    0.70017575338920
C         4.40260087211674   -2.23321573997113    0.08225098384899
C         5.32140328996906   -1.50534747195884    1.06970839510280
H         4.87853021998552   -0.54525855098544    1.31918650450306
H         5.37940887730400   -2.09345553387169    1.98212188472511
H         6.32102357445620   -1.37714185898356    0.66623805529429
C         4.92739359853513   -3.65042395251310   -0.14816320565909
H         5.06296368250253   -4.13349407111896    0.81587408169657
H         5.88332551178616   -3.61610250360000   -0.66312862067614
H         4.22583251267115   -4.24369654830413   -0.72501550916660
C         4.12430389474470   -1.40618609470829   -1.22276463895698
O         2.86361456423563   -0.77932011082288   -0.94269724115531
C         5.15972693188616   -0.32515299489920   -1.52899662235861
H         6.14555040925361   -0.76662828832445   -1.64571938105656
H         4.88687877369398    0.17636390801343   -2.45410986159256
H         5.17736406133999    0.41462842688776   -0.73635637215954
C         3.93119877796763   -2.28177882676062   -2.46835933067924
H         3.16513869716969   -3.03049869555960   -2.28725476225326
H         3.59593671489729   -1.65064742654364   -3.28783474623867
H         4.86041004447775   -2.76597882258550   -2.75296183142336
H        -3.10502006468900   -3.39767938688650   -3.25442964498893
H        -5.17282586852579    1.47465932926874    1.19957168218664
C         0.23589999999865   -1.68140000000272    2.96030000000395
C        -0.95130189677754   -2.05456599253403    3.51408406071143
C         1.16118006361878   -1.54800568622756    4.04878825832013
N        -0.81295247495043   -2.10957641443464    4.89614863885294
H        -1.89778419337456   -2.28719001304007    3.07036399450344
C         0.49911681911407   -1.79195146834230    5.20369350295424
H         2.19755811187957   -1.30021214362965    3.93896149470951
C        -1.75922547846088   -2.45468810203332    5.83320996143848
H         0.81458097502959   -1.78463845208476    6.22805788666604
O        -1.52342129439081   -2.46381276618463    7.02172464942906
O        -2.91639445389862   -2.76538097757187    5.25434214488684
C        -4.05675873635173   -3.22125605870880    6.04250598118376
C        -4.49821464287717   -2.13049098741525    7.01716859919440
C        -5.14221951364733   -3.48028058179012    4.99698134653291
C        -3.70221944811229   -4.51334601079250    6.77764418526886
H        -4.68824727539035   -1.20352313872602    6.48020377423469
H        -3.72763232553982   -1.95242115594708    7.76253578312957
H        -5.40882847368779   -2.44251769105588    7.51965489093310
H        -5.38147761651310   -2.56006207015361    4.47152457063301
H        -6.03679414565256   -3.85629008703742    5.48298234184978
H        -4.79398830753709   -4.21260483062397    4.27363643111194
H        -2.91771428344728   -4.33262363698395    7.50787223118468
H        -3.35649556836585   -5.26359019487628    6.06970833748684
H        -4.58112780625677   -4.88954939752630    7.29238524583407
