   93
 energy: -138.897212155820 gnorm: 0.000189006405 xtb: 6.4.1 (1a32961)
N        -0.96705309717052   -2.00844845363592   -0.33682459745958
C        -2.19803033554278   -1.49498375007095   -0.51854744506442
C        -3.09936545413653   -2.08553452731167   -1.41312041426543
C        -2.72347719702276   -3.20136064016481   -2.12901666292409
C        -1.44337555749289   -3.71468566276868   -1.93855648004253
C        -0.61323333664509   -3.08359817060701   -1.03550658138136
H         0.38665610773929   -3.45002513209251   -0.85100575806662
H        -1.10517552193102   -4.58472505036645   -2.47719100740257
H        -4.08701991272699   -1.67687792578134   -1.54776366340387
C        -2.52029695594235   -0.30218303544269    0.25673813544203
N        -1.56628061716729    0.14184771513243    1.10281647550457
C        -1.81537325027013    1.22663206020568    1.83418399662443
C        -2.99958477698754    1.93231929179251    1.77082358542421
C        -3.98645016459386    1.49737952233972    0.89064985858164
C        -3.73997532997898    0.37359539292268    0.13099680719863
H        -4.49047834679386    0.02562733723767   -0.55882449370171
H        -3.15013209489572    2.79960947810559    2.39274636369389
H        -1.01617053538853    1.53113903128261    2.49293687127931
Ir        0.42150000000012   -0.81650000000014    0.91329999999959
B         0.43110632433994    0.56787548378359   -0.63812978043438
O        -0.07277464595945    0.22161910078462   -1.87475864041765
C        -0.15501806687638    1.38101696375874   -2.71295891930506
C         0.28681491389834    1.02068433283303   -4.12885739080332
H         1.25313460908268    0.52801433964722   -4.11312316743455
H         0.34080313773821    1.91522606017629   -4.74388582801670
H        -0.43673226621375    0.33654416711768   -4.56546159766380
C        -1.62766943341648    1.81474579239450   -2.73621933673617
H        -1.77566295681729    2.66314483320844   -3.39767223840718
H        -2.22988540154235    0.97983386888153   -3.08887798793991
H        -1.95975662704279    2.06983767039461   -1.73178319234941
C         0.76828401679187    2.40298892662042   -1.97103047683477
O         0.77002850796513    1.90096959957414   -0.62608576653088
C         2.21860899860888    2.34387775225276   -2.46460394010023
H         2.58457988354895    1.32440309742309   -2.36831515553221
H         2.30242085756730    2.68761137984328   -3.49141885016612
H         2.83107309781986    2.97770047537317   -1.82804953879238
C         0.27882384540461    3.84931754670217   -1.98877220250080
H        -0.68009681315324    3.94941116002472   -1.48984455381680
H         0.99921124218237    4.47475298370916   -1.46716046190479
H         0.19141733992032    4.19784266970166   -3.01456497433244
B         1.61153478563777    0.62189826571768    1.86580548087782
O         2.91452554368592    0.96011153239213    1.63926257792070
C         3.27080358733010    2.15335491113100    2.35246225783807
C         4.60810418867309    1.93056107701757    3.06042821329305
H         4.58679675784813    1.01125383294513    3.63767354914616
H         5.39294520403333    1.83796423559291    2.31412976983619
H         4.84071342210331    2.77051997376634    3.70843440527784
C         3.42926981183143    3.25680040308016    1.29989770025988
H         3.65929286554571    4.21385644259994    1.75804420034999
H         4.24170710413351    2.97951774813988    0.63233118287007
H         2.51986726743718    3.32457812550313    0.70929819753720
C         2.04799146794281    2.37805943832303    3.31664508764713
O         1.07521042567715    1.43866041596896    2.83855199872468
C         1.43261803125361    3.77820420067936    3.25589235557297
H         1.06556633698321    3.99337823219882    2.25764926089574
H         0.59305472543508    3.82241315526911    3.94572122033785
H         2.16320562754125    4.52679098359629    3.54811252836699
C         2.33841505924729    2.03542442464603    4.78279356057643
H         2.74351664125107    1.03199516302170    4.86890610270574
H         3.03464209599683    2.74715610491528    5.21520888629042
H         1.40478525332565    2.07340269042349    5.33978054749360
B         2.27820000000059   -1.33089999999998    0.17409999999918
O         3.10418081076424   -2.26718233647209    0.75780908061314
C         4.39337974480013   -2.24691938447882    0.12857579057050
C         5.31053536630330   -1.42467230169380    1.03742075515364
H         4.89196261798492   -0.42985166538107    1.15604187346603
H         5.32584819500540   -1.88802072176600    2.02049166892404
H         6.32163747417862   -1.37512083709010    0.64541353937361
C         4.92966187281248   -3.67328426205265    0.01810126463525
H         5.09680216866867   -4.05901423987400    1.02017210871625
H         5.87158756974322   -3.67663692806864   -0.52316035306833
H         4.22156703804691   -4.32612370990557   -0.48159013586972
C         4.09388360010862   -1.53827107900089   -1.23742933798357
O         2.85603276371330   -0.85383529218700   -0.97762697322084
C         5.14896946580771   -0.52534150224643   -1.67613066404236
H         6.12069533745761   -1.00505697957562   -1.75248932261965
H         4.87793989395747   -0.12330501300570   -2.64928736679656
H         5.19981648385532    0.29609583650255   -0.96995498858072
C         3.83206861480304   -2.52514204371002   -2.38295958563571
H         3.06539030254656   -3.23892597694331   -2.09425460026440
H         3.46709153959905   -1.97103967105557   -3.24435001942323
H         4.74099627262832   -3.05120829043587   -2.65815302717147
H        -3.40797420321534   -3.66486947664509   -2.82284897957787
H        -4.92334388313236    2.02599056531316    0.80245872491890
C         0.23590000000052   -1.68139999999916    2.96030000000196
C        -1.01567200641200   -1.95345461418859    3.40390519812057
C         1.15692616807625   -1.63873369568274    4.05823315439097
S        -1.12352554301475   -2.09138853220903    5.13518296496041
H        -1.91683368741176   -2.09028944502906    2.84024313187907
C         2.54619603123484   -1.45909751871824    3.97438621970666
C         0.55654135443710   -1.82631945886781    5.27846829987976
N         3.68855457531049   -1.34611249127476    4.03155060089641
H         1.02237986321084   -1.82675839138116    6.24486624866632
