   99
 energy: -144.178675449822 gnorm: 0.000661466220 xtb: 6.4.1 (1a32961)
N        -0.82870850645213   -1.99071005314516   -0.48520513578372
C        -2.08606463731912   -1.54037706604822   -0.66335199245754
C        -2.91790033873993   -2.09971805931069   -1.64253919119669
C        -2.45136405484153   -3.11840305433393   -2.44298923598073
C        -1.14649047582479   -3.56735846403720   -2.25301623294287
C        -0.38737978418757   -2.97175507575426   -1.26832012357509
H         0.63002027706956   -3.28723902752610   -1.09083683613419
H        -0.73736003465516   -4.36179158420823   -2.85578951765225
H        -3.92435170651288   -1.73995443091101   -1.77854302992524
C        -2.51658901572546   -0.45642975172969    0.20883236442071
N        -1.62147622466753   -0.02018909679999    1.12031534349944
C        -1.98682510901831    0.94838175151769    1.95677212260034
C        -3.22705698328592    1.55218288366045    1.93350381708705
C        -4.15153453342007    1.13321054697735    0.98031661363623
C        -3.78945241840204    0.12194875145915    0.11805736109883
H        -4.49359569249040   -0.21697511555523   -0.62369760339916
H        -3.46892362812699    2.32811369387288    2.64179875006112
H        -1.23591067584167    1.24801152777581    2.67099599646944
Ir        0.42149999999975   -0.81649999999997    0.91330000000038
B         0.48291292954162    0.67256021587354   -0.55788115064550
O        -0.38377729738402    0.60960578771340   -1.63583524484248
C        -0.34853437542879    1.83860124951066   -2.36686565183567
C        -0.42869535744717    1.55437353880915   -3.86496436680417
H         0.31998872494679    0.82702954908540   -4.16152732798160
H        -0.28710877320391    2.47396295591097   -4.42705912086164
H        -1.40954049385843    1.14745003553762   -4.09945221785421
C        -1.58215555270148    2.64638054915411   -1.93802720282089
H        -1.65108638980964    3.58217257963485   -2.48475998296396
H        -2.47257407321693    2.05262487569178   -2.13637195536280
H        -1.54417180206095    2.84499371946214   -0.86875497303232
C         0.99345805549877    2.48401103479566   -1.88780283683221
O         1.21952698003857    1.83334358624972   -0.63081714222151
C         2.18003489717187    2.12398871825870   -2.79060195202904
H         2.24589431359488    1.04296599955200   -2.88722794851402
H         2.08924513095616    2.58660390966243   -3.76905792915383
H         3.09365124829222    2.47517929439464   -2.31582875168905
C         0.94673823350533    3.99804582363792   -1.68884398146252
H         0.24992713253107    4.26707694856887   -0.90087566026810
H         1.93491380514293    4.35121459178717   -1.40336835609484
H         0.65459033327331    4.48806427008451   -2.61405407093421
B         1.46140606800629    0.68307561330112    1.93617504013174
O         2.82261843643187    0.81710443136465    2.05755164639959
C         3.15437376467504    2.07029922117585    2.66651394477376
C         4.28713185559200    1.86482012640883    3.67121070691528
H         4.02851656201140    1.10338863415378    4.39913554047496
H         5.17532297416979    1.53926517016797    3.13614030722212
H         4.50793082245172    2.79798877061670    4.18237785427361
C         3.63512352697783    2.99315697799925    1.53963585356186
H         3.86313904135054    3.98910359669812    1.90704460591111
H         4.53401551157387    2.56479695009205    1.10253738946308
H         2.87209877011463    3.03588096113947    0.76682972689086
C         1.79064384916414    2.52326816153113    3.29382214055389
O         0.83379991893546    1.71722393668503    2.59444146262256
C         1.44801905201994    3.99817639367351    3.08812313595784
H         1.36341865635368    4.22778294146161    2.03099714580063
H         0.49227402241688    4.21069204565489    3.56097799403308
H         2.20956582483397    4.62746658788753    3.54049444064446
C         1.66569917674304    2.17925614044772    4.78379204657775
H         1.83953796696164    1.11822341172813    4.94100424032961
H         2.36176740083891    2.76126113741932    5.37989562371581
H         0.65214870017577    2.40166137888011    5.10963322381900
B         2.27820000000230   -1.33089999999781    0.17410000000158
O         3.35725616301072   -1.78515215224031    0.90717268774739
C         4.51697795848244   -1.88784449767607    0.07046126675310
C         5.35581579199997   -0.63093739777514    0.32091458351083
H         4.75200510068575    0.24765127426027    0.11133169041916
H         5.62737084803809   -0.60347663769430    1.37295643455532
H         6.25897546777574   -0.62876873666937   -0.28172045610278
C         5.32244894559205   -3.12585632713081    0.46081844237615
H         5.73150129614676   -2.98229780395178    1.45703593961208
H         6.14169377446439   -3.27328484882090   -0.23728405419555
H         4.69662399475271   -4.01171777714717    0.47896001062474
C         3.89542969317683   -1.92672778335906   -1.36720345903396
O         2.59732957426608   -1.34490747120420   -1.16707443792961
C         4.65810760271714   -1.12473236523457   -2.41941868945741
H         5.67617564795392   -1.49447964810877   -2.50639552469598
H         4.16153200136943   -1.23517312159358   -3.38028695817681
H         4.67297173119099   -0.07080653813065   -2.16410274349979
C         3.67689254079624   -3.35420570824489   -1.88708771114301
H         3.13300349890903   -3.94295177122491   -1.15304996302654
H         3.07906312098221   -3.30380839651398   -2.79414066076812
H         4.62300926403688   -3.83623226969035   -2.11353486827306
H        -3.08375010545501   -3.55588275119269   -3.20062587991810
H        -5.12988812487262    1.58561909940446    0.91833893419285
C         0.23590000000318   -1.68140000000206    2.96030000000354
C        -1.03751474546262   -1.95464880544252    3.42690749698938
C         1.24775800615763   -1.66353846946692    3.92481912860875
C        -1.31364031454569   -2.08775172428984    4.79538052617464
H        -1.86328937607101   -2.06973253037226    2.73854653749758
N         2.59536231833369   -1.54909091890216    3.76594845485955
C         0.98820089597159   -1.80356673131036    5.31429002671551
C        -0.32527122525287   -2.00370641114740    5.74709906511179
H        -2.33644311912748   -2.27021226554152    5.09845437262961
C         3.19050169361503   -1.58857964907964    4.98859607693433
H         3.03708913265410   -1.41289286780573    2.86594706283154
C         2.24988092879490   -1.74182264174112    5.96672131579013
H        -0.55011655221230   -2.11169570013995    6.79876458853185
H         4.25734679984027   -1.51692359319735    5.08613234846731
H         2.42447461565477   -1.81212869663673    7.02288422479834
