   98
 energy: -143.971064158861 gnorm: 0.000154567650 xtb: 6.4.1 (1a32961)
N        -0.90684648232203   -2.02809397630518   -0.38140677703452
C        -2.16502716153848   -1.57251426327210   -0.53297374449992
C        -3.03336085217279   -2.15693049247074   -1.46443894665425
C        -2.59841479464260   -3.20470632837238   -2.24557027674392
C        -1.29252771115495   -3.66105068629727   -2.08123175449797
C        -0.49768705091173   -3.04102177346686   -1.14035646856749
H         0.51986227185592   -3.36476783745996   -0.97256272614002
H        -0.90968262491752   -4.47882732661143   -2.66983534340172
H        -4.04115471387612   -1.79337710901902   -1.57954094907525
C        -2.55137568855663   -0.45133185043368    0.31423091515104
N        -1.60845279158548    0.01975345125013    1.15847256960339
C        -1.91942296920379    1.03597742027382    1.95977157858800
C        -3.15733443669079    1.64525815020113    1.97328138986621
C        -4.13610125273344    1.18131339205465    1.09787746670077
C        -3.82525144192583    0.12886905334284    0.26456623958811
H        -4.56978895128896   -0.24152058080539   -0.42042692204228
H        -3.35655765761199    2.45912634018182    2.65145140294037
H        -1.12393095161347    1.36936608040183    2.60828593071400
Ir        0.42149999999985   -0.81649999999983    0.91330000000012
B         0.38616790833396    0.62429334077506   -0.59674277652883
O        -0.28971854695372    0.35556653611202   -1.77508978509621
C        -0.39591619427990    1.54719490454894   -2.56087547294692
C        -0.19904059466990    1.21210241597838   -4.03707224462160
H         0.70944990767909    0.63709857440942   -4.18218589652573
H        -0.15221337602728    2.12546989107206   -4.62445508882734
H        -1.03880100701716    0.61441171221316   -4.38373651091889
C        -1.81392176478416    2.09809495298361   -2.35055235510220
H        -1.98650744673320    2.98177098832825   -2.95773578907640
H        -2.53113794700881    1.32888669871955   -2.63068910981242
H        -1.96995504821462    2.33715504696803   -1.30031479720871
C         0.70608062129956    2.46370879246038   -1.93680275026334
O         0.84774206093090    1.92085921402949   -0.61713649737328
C         2.06544494012047    2.29962118429448   -2.62770340037548
H         2.34563064009275    1.24898674829884   -2.61577674030368
H         2.04381115182244    2.67970287957897   -3.64508251974536
H         2.81266504403774    2.84811520185355   -2.05898125726337
C         0.34653912697678    3.94601339008812   -1.85902753882360
H        -0.51009322256905    4.11037505467231   -1.21276173594516
H         1.19046348423261    4.49614916701132   -1.44975788122275
H         0.12897159100131    4.32819625408102   -2.85322394771975
B         1.55867789670711    0.65274512995364    1.86724369434961
O         2.92575796316959    0.80304504107751    1.87222204154142
C         3.27932157166849    2.07894608147492    2.42554807598875
C         4.53691981607576    1.94400606640542    3.28273943756407
H         4.42523433189232    1.15787753960607    4.02202990060113
H         5.37870436463291    1.69025270959610    2.64349368838575
H         4.74936450715085    2.88546821264097    3.78213286489424
C         3.56523977758585    3.00510829454503    1.23743604026411
H         3.82651534028433    4.00692794652148    1.56514742986694
H         4.39386640507602    2.59155908484327    0.66692405689595
H         2.69227726029338    3.02723117466607    0.59025548099382
C         1.98563611556341    2.48320553272108    3.21119883614817
O         0.97904048822122    1.66181403256095    2.60479598388019
C         1.58565733108365    3.95168567973818    3.07918766998716
H         1.35172421908796    4.19292492748404    2.04771194287478
H         0.69934906726197    4.13435811545157    3.68192289495028
H         2.38802039943214    4.59291633516292    3.43405868927722
C         2.04222380558210    2.10716731749558    4.69746477276690
H         2.28046951518758    1.05285034234634    4.80512901448844
H         2.77378094767643    2.71050706968588    5.22613669233243
H         1.06185604660697    2.27405855167155    5.13765287174051
B         2.27819999999972   -1.33090000000044    0.17409999999957
O         3.11940058830957   -2.27839484123892    0.71867022404740
C         4.40429466258570   -2.23076943189819    0.08618202236188
C         5.33788545930956   -1.49565472280757    1.05413292193290
H         4.90282145268198   -0.53049280641301    1.29715190112419
H         5.40477175472807   -2.07407817061073    1.97219473202398
H         6.33315880495992   -1.37656122973485    0.63750200256459
C         4.91795890032162   -3.65484714517564   -0.12783662008676
H         5.05527968461732   -4.12566050497299    0.84202755128640
H         5.87132811532973   -3.63453172420516   -0.64819033375748
H         4.20917412450825   -4.25111411870489   -0.69264829937644
C         4.11727610034225   -1.42220173983386   -1.22943493206680
O         2.85215935075311   -0.80080499397496   -0.95751895927534
C         5.14385212097967   -0.33634414361297   -1.54898308507575
H         6.13264351062582   -0.77127748066822   -1.66493369150796
H         4.86424388296813    0.15460756423757   -2.47774291389980
H         5.15809721263877    0.41067409479889   -0.76306962994962
C         3.93065896429821   -2.31329794214973   -2.46493167591696
H         3.16614850031304   -3.06219600449191   -2.27794964434248
H         3.59589062984596   -1.69286021002773   -3.29276527760353
H         4.86206787100768   -2.79803413213833   -2.74131363321224
H        -3.25680744098321   -3.66048993869850   -2.96945028660478
H        -5.11622607482805    1.63315913565546    1.07126229899401
C         0.23590000000005   -1.68139999999862    2.96029999999689
C        -1.03897494826030   -2.06538869760801    3.33863020795302
C         1.21643444743991   -1.51599829563911    3.95110405070223
C        -1.37022538081173   -2.18013684143691    4.69191904488185
H        -1.80444814457006   -2.28487953322227    2.60730103053562
C         0.92145693441340   -1.63130856425923    5.29409384757797
H         2.22736048523555   -1.29840074910022    3.64296096168009
C        -0.37923298655053   -1.94604851388284    5.66060795324138
C        -2.62302219880024   -2.52410768992017    5.28831881536203
H         1.68037236351233   -1.49163450453085    6.04959193391387
S        -1.01017496046568   -2.14622884642505    7.27530863937493
C        -2.57473278254200   -2.54001873478521    6.63568425004733
H        -3.50854482591691   -2.74303260783743    4.71787952286422
H        -3.36478806162417   -2.76251355687266    7.32638710847627
