   98
 energy: -143.972654784031 gnorm: 0.000217816078 xtb: 6.4.1 (1a32961)
N        -0.93060214707499   -2.01367455855508   -0.36210687470484
C        -2.18225370173374   -1.54117866790979   -0.51953085086925
C        -3.07811318448071   -2.15892483156093   -1.40275206747091
C        -2.67613301430726   -3.25439599996182   -2.13397830725306
C        -1.37449314372753   -3.72375941807739   -1.96966034952987
C        -0.55283218500912   -3.07126889994587   -1.07537816716379
H         0.46202566332902   -3.40436092519671   -0.90932645329900
H        -1.01576956791843   -4.57722399443847   -2.52157936161833
H        -4.08276909515435   -1.78575151554847   -1.51478620160791
C        -2.53131618617762   -0.36585076323876    0.26639396635294
N        -1.58373373810714    0.09765315938798    1.11067679883368
C        -1.86018132025722    1.16777818702154    1.85377344309217
C        -3.06340711314880    1.84011959460455    1.80415411198430
C        -4.04417907315985    1.38570752549692    0.92524167485198
C        -3.77029552776918    0.27790944544184    0.15339760909553
H        -4.51441569427239   -0.08438093608983   -0.53634868180009
H        -3.23530320599605    2.69615210900736    2.43646557773841
H        -1.06616506825029    1.48747589249345    2.51118217139533
Ir        0.42149999999994   -0.81650000000006    0.91330000000008
B         0.39374629898822    0.62445815018876   -0.59476982772179
O        -0.19907210771412    0.32923479983860   -1.80825222855703
C        -0.30311322281545    1.51416336017534   -2.60535546323779
C         0.01748435195858    1.18403733389702   -4.06093177306942
H         0.96021137995664    0.65210832251418   -4.13368794757878
H         0.06427035275511    2.09626026507120   -4.65017464965630
H        -0.76537014828758    0.54548939454841   -4.46328397604266
C        -1.75667479088775    1.99893351882399   -2.50548573882419
H        -1.92276218766244    2.87037189522262   -3.13184653016214
H        -2.41436966140164    1.19585680860655   -2.83260991653523
H        -2.00344823016922    2.23695467493180   -1.47259298717925
C         0.70717339190677    2.48260440009569   -1.90772714326983
O         0.78587829453490    1.94447757917874   -0.58026697371701
C         2.11570294472959    2.38707762435445   -2.50664210761610
H         2.44959162197907    1.35292401246064   -2.46545940461517
H         2.13897124668245    2.75757271431971   -3.52739453314041
H         2.79502290532291    2.98009705695121   -1.89904935976286
C         0.27068050930176    3.94530639831375   -1.85566469637848
H        -0.63800155944803    4.06632857618342   -1.27390858036252
H         1.05454625912196    4.53470874031009   -1.38599831471425
H         0.10812674062636    4.31973840405204   -2.86316438318937
B         1.58319853437800    0.63949375443156    1.86720013415368
O         2.92113997528703    0.90159766687747    1.71768632874349
C         3.27630409930469    2.12674911142682    2.37332533674103
C         4.58952168477873    1.93330208891327    3.13217472498004
H         4.53201076278956    1.07476908409789    3.79285550141839
H         5.38797884182755    1.75440063050029    2.41679665896211
H         4.82816539096176    2.82430872253427    3.70613631123139
C         3.47730608245761    3.16907701841829    1.26709542436148
H         3.71815843572639    4.14547789970526    1.67661688492796
H         4.29483811234536    2.84066974379158    0.62930857993953
H         2.57835077970783    3.21990917085197    0.65884849558409
C         2.02845421568860    2.41936061703458    3.28153710645819
O         1.02935088924067    1.53684257236530    2.75373682854822
C         1.50430952171049    3.85424879617221    3.20862891314200
H         1.18703095966085    4.09718563261653    2.19986228895636
H         0.64504686032016    3.94894368545134    3.86830898250466
H         2.27065435309276    4.55331961605350    3.53147685303346
C         2.23715240504970    2.04445170783875    4.75401145680509
H         2.55740067415780    1.01108511308009    4.84262280217588
H         2.96887939996732    2.69579993467020    5.22141323303134
H         1.28877352404847    2.14537546713528    5.27676481116396
B         2.27819999999933   -1.33089999999898    0.17409999999941
O         3.13504474774991   -2.25002406904018    0.73996168773250
C         4.40366500177371   -2.22626057340326    0.07295259638222
C         5.35407409349607   -1.42646690088766    0.96926842075935
H         4.92264095552763   -0.44717097082185    1.15381543592641
H         5.43610271252019   -1.93802403992614    1.92478467871409
H         6.34051938745416   -1.33703870420649    0.52532898804888
C         4.92694759371632   -3.65470664093709   -0.07457185291711
H         5.10770767076491   -4.06306138349255    0.91599544187046
H         5.85904218817485   -3.65552049147672   -0.63259677070235
H         4.20476075772105   -4.29180143534526   -0.57417591073111
C         4.07120474026733   -1.49670106297067   -1.27647719287754
O         2.82209352733569   -0.84681187670260   -0.99209447320621
C         5.09453828452593   -0.44630114299134   -1.70447724893079
H         6.07510808676867   -0.89936811689273   -1.82063141581653
H         4.79012247778947   -0.01933913505009   -2.65691189581434
H         5.14157822764687    0.35338288752946   -0.97353595034715
C         3.82344904168014   -2.46231369628936   -2.44332784465712
H         3.06696411462937   -3.19365866075025   -2.17227695432244
H         3.44996774602366   -1.89389643083671   -3.29175728079433
H         4.73923077028091   -2.96906339709892   -2.73191590273015
H        -3.35573271540178   -3.73728980530790   -2.81962514082119
H        -4.99668863365664    1.88809168954588    0.84886669224444
C         0.23589999999857   -1.68140000000215    2.96030000000063
C        -1.06881755581589   -1.93183562601606    3.36114319468953
C         1.20244835892103   -1.68320937575881    3.96666595550649
C        -1.41676248285513   -2.05214080272947    4.70814940531543
H        -1.85388967965701   -2.03816604810460    2.62584639812217
S         2.92476901660169   -1.57775025378702    3.74142563957393
C         0.87523001384975   -1.81958910487168    5.33201167682292
C        -0.46363637749111   -1.98337687659473    5.69714853715564
H        -2.45415161324676   -2.21139773211798    4.96894965646274
C         3.17477422889439   -1.69891586305798    5.45917984820667
C         2.03098055713073   -1.81183000390399    6.16747627712334
H        -0.72924172839667   -2.08021244542921    6.73940978923026
H         4.17739616413351   -1.68086318593588    5.84107193785027
H         1.98442124331680   -1.89815069204361    7.23850664722771
