   98
 energy: -144.797434607622 gnorm: 0.000191171797 xtb: 6.4.1 (1a32961)
N        -0.91821085728621   -2.02556914924068   -0.36649634496067
C        -2.16851068446271   -1.55440640402810   -0.53594676616361
C        -3.05646783527169   -2.17519165829946   -1.42489855658449
C        -2.64758156252442   -3.27232057917822   -2.14990949652457
C        -1.34699065336684   -3.73996679607516   -1.97369408437159
C        -0.53353982666018   -3.08467542859104   -1.07378617976184
H         0.47962305790530   -3.41755854754387   -0.89772078620407
H        -0.98335448273925   -4.59475932825775   -2.52039384696865
H        -4.06072378044262   -1.80380547223612   -1.54589180812957
C        -2.52498061441248   -0.37682589764513    0.24355526280933
N        -1.58856705835370    0.08458771941288    1.10112701368311
C        -1.87330071811818    1.15617920546306    1.83881713224354
C        -3.07245191770831    1.83417033453991    1.76761096974811
C        -4.04031703228796    1.38323394296956    0.87302051968359
C        -3.75897698813776    0.27191174444137    0.10877131216873
H        -4.49302500255827   -0.08797496420324   -0.59291755300874
H        -3.25075457025927    2.69247487678339    2.39503530530337
H        -1.08854186862397    1.47491424042545    2.50734573705272
Ir        0.42149999999996   -0.81649999999992    0.91330000000015
B         0.40360316260542    0.61619996293462   -0.60529170748201
O        -0.19724090213496    0.31490158597118   -1.81321504451474
C        -0.28282407694023    1.48870893143685   -2.62807793437474
C         0.03826545555585    1.13097885608331   -4.07724427114817
H         0.97697817693677    0.59074600854983   -4.13900303963549
H         0.09296910341692    2.03210807665823   -4.68263989719588
H        -0.74861849651545    0.49122939118573   -4.46962528029155
C        -1.73047176540005    1.99313430986187   -2.54184107136793
H        -1.88209140883068    2.85965831115207   -3.17862367606761
H        -2.39628822111695    1.19490026782040   -2.86422432376775
H        -1.97993737203827    2.24514543102738   -1.51303777951023
C         0.73869672175186    2.45488540993687   -1.94265016338748
O         0.81945348645864    1.92878584424069   -0.61071266510732
C         2.14440679206726    2.34373762970417   -2.54551910893023
H         2.47081374386227    1.30782799933531   -2.49464868235931
H         2.16735324793423    2.70378109376900   -3.57002024294756
H         2.82944644183011    2.93841556877779   -1.94588487702861
C         0.31429758670083    3.92161104780667   -1.90139007799130
H        -0.59188292910026    4.05452966372729   -1.31847799249591
H         1.10403698025032    4.50793502114625   -1.43773887488732
H         0.15271807510649    4.28982238272353   -2.91133585611061
B         1.57305685298173    0.64219315722040    1.87049930623144
O         2.93272346961431    0.83061636461252    1.80279678615165
C         3.29492375503068    2.08533337722277    2.39484705945633
C         4.57177159458170    1.91520598349534    3.21748186282947
H         4.46871611178125    1.10263186233777    3.92899238791209
H         5.39636106528922    1.67888774636182    2.54985891865033
H         4.80277572414441    2.83683319975234    3.74455705837741
C         3.55763005763889    3.05276030275505    1.23454384863962
H         3.81764096177344    4.04495599534944    1.59085197107931
H         4.38051368126840    2.66333538678935    0.63925111349085
H         2.67541554342743    3.09139871058718    0.60117030969350
C         2.02045478212809    2.46004970237678    3.22876727068305
O         1.00979554090704    1.61412868582015    2.66607935316484
C         1.57668313144128    3.91737740392681    3.10295856611492
H         1.30636907192254    4.14737583073142    2.07776266589800
H         0.70275726493626    4.07670265000447    3.72990355244361
H         2.36960348819074    4.58287543727589    3.43314507346072
C         2.13835651552602    2.09910562883042    4.71485630036058
H         2.40413622285250    1.05157073948941    4.82422766038202
H         2.87642830345186    2.72126201396361    5.21167334316250
H         1.17107184478868    2.25118849697957    5.18822748604406
B         2.27820000000000   -1.33089999999978    0.17410000000018
O         3.14665822024675   -2.24533073305985    0.73182408660885
C         4.40739167322115   -2.22369457972597    0.05053296232340
C         5.37632477121871   -1.43915846951562    0.94239906530620
H         4.94970614284466   -0.46248839166183    1.15319186324442
H         5.48691938570137   -1.97131762642883    1.88425817602958
H         6.35262290586853   -1.33884970955406    0.47870581537896
C         4.91896560188030   -3.65495029478966   -0.11393447937322
H         5.10175034624633   -4.07571152196473    0.87127644771365
H         5.84788833029194   -3.65804447963240   -0.67718672092722
H         4.18854720967452   -4.28089690082137   -0.61533459744774
C         4.06608528177488   -1.48101049062882   -1.28988089984836
O         2.81531357879726   -0.84094827992384   -0.99394096537716
C         5.08341914793185   -0.42100123907754   -1.70987669263496
H         6.06580841126371   -0.86783533868563   -1.83490952010167
H         4.77414768806427    0.01483753830736   -2.65658163725818
H         5.12956754843036    0.37170317228181   -0.97120306241801
C         3.81995699868327   -2.43420412033360   -2.46711937406847
H         3.06556214928826   -3.17047864659879   -2.20424228051770
H         3.44411367008777   -1.85691565735652   -3.30837827234514
H         4.73683578747578   -2.93483583594131   -2.76288742470916
H        -3.32134295634587   -3.75781557613837   -2.83950465526920
H        -4.98840125432946    1.89092503276137    0.77843128031029
C         0.23589999999745   -1.68139999999937    2.96029999999991
C        -1.06235430222203   -1.95712956214263    3.36722388341134
C         1.20340183563616   -1.66559731505408    3.97271043151669
C        -1.41363554665991   -2.09612690645015    4.71185521447415
H        -1.84958881908542   -2.06958382885826    2.63505595023758
C         0.83781922019567   -1.82151209889563    5.32559338043223
C         2.62968420068361   -1.54423957130502    3.98473391203852
C        -0.47540423182204   -2.02272880495349    5.72237377830495
H        -2.44878901204132   -2.27615435086358    4.96502964621838
O         1.93900234475829   -1.78254341849078    6.11879383002765
C         3.00304900690237   -1.62048583299459    5.28115350592279
H         3.24093174607530   -1.42106847673921    3.11661682605877
H        -0.73746897490844   -2.13616457600346    6.76209521122242
H         3.96390343174768   -1.57933331618055    5.75712620842887
