   98
 energy: -144.794079235543 gnorm: 0.000211653149 xtb: 6.4.1 (1a32961)
N        -0.91571534056097   -2.01685068754836   -0.38297402287853
C        -2.17170866929208   -1.55314849118187   -0.52831976419923
C        -3.04146663156037   -2.11712260709955   -1.47071576614792
C        -2.61152190707585   -3.15600432792831   -2.26649989642518
C        -1.30911484413610   -3.62332729233954   -2.10599757057152
C        -0.51144756675814   -3.02137086549297   -1.15575668811884
H         0.50382628018052   -3.35359588040712   -0.99097540204406
H        -0.93062896690085   -4.43515895168555   -2.70551839934586
H        -4.04558978648570   -1.74320989133961   -1.58454774313012
C        -2.55336260577435   -0.44359840978189    0.33654743790486
N        -1.60062467516792    0.02693886188650    1.16966708827873
C        -1.90513425018619    1.03453671981229    1.98386740640762
C        -3.14789325445132    1.63294450616181    2.02441051456692
C        -4.13881793842007    1.16618538641562    1.16454884401324
C        -3.83352122359661    0.12420839376996    0.31607752884356
H        -4.58807732741895   -0.24988660680744   -0.35567641904826
H        -3.34155982162514    2.43960501451871    2.71269626654796
H        -1.10089702911360    1.36928292963982    2.62058095004928
Ir        0.42149999999996   -0.81649999999993    0.91330000000002
B         0.38732305516316    0.63209542898539   -0.58892604632722
O        -0.29507318808544    0.38221119982208   -1.76789162714259
C        -0.40599173199035    1.58663726224218   -2.53345697240897
C        -0.21871896319006    1.27626189741718   -4.01631926539397
H         0.68869878696933    0.70378849430764   -4.17715574837615
H        -0.17565751255824    2.19948652469707   -4.58837738124529
H        -1.06078931956098    0.68458584988064   -4.36748634572209
C        -1.82276123398967    2.13358633334926   -2.30496059918220
H        -1.99965413874541    3.02730240905597   -2.89603229066703
H        -2.54134983809974    1.36881472059117   -2.59344557327483
H        -1.97197274377023    2.35457523020748   -1.24985590880202
C         0.70020007823258    2.49292414306029   -1.90155993832496
O         0.85213898360048    1.92754845926194   -0.59266015425096
C         2.05458922464171    2.34227496586477   -2.60518305689680
H         2.33591186174902    1.29193583468413   -2.61307098781671
H         2.02515433238461    2.73946738141027   -3.61578712885585
H         2.80544708956848    2.88177201573462   -2.03262792066360
C         0.33993391964869    3.97326969050281   -1.79468169972905
H        -0.51149223090046    4.12467317565736   -1.13850793122449
H         1.18652190732360    4.51678374785791   -1.38213287468080
H         0.11410596951705    4.37315664879837   -2.78001434583868
B         1.56997517579750    0.63753259510861    1.87717050410470
O         2.93882361583755    0.76763582654620    1.89582241183329
C         3.30601421711096    2.03407953905890    2.46141583549630
C         4.55127935786103    1.87353799743947    3.33206838335805
H         4.41656050049652    1.08716988418606    4.06747066902158
H         5.39553883275023    1.60620677694745    2.70160876727290
H         4.77543751671647    2.80912697246415    3.83747146544645
C         3.61929570063279    2.96229048461466    1.28158389119056
H         3.89098008501908    3.95862195895541    1.61741563865702
H         4.44851194925869    2.53986896702582    0.71854465660387
H         2.75425281041300    2.99993431220577    0.62443135068606
C         2.01016942685446    2.45438333194957    3.23507893578557
O         0.99810663857839    1.65032903435636    2.61522612302231
C         1.63261754880531    3.92903140133918    3.10287031236054
H         1.41572652689772    4.17674780521899    2.06927484584208
H         0.74093878004373    4.12193620127946    3.69437442861806
H         2.43911084029351    4.55760680136361    3.47078257809298
C         2.04453647242754    2.07628184655788    4.72167124683053
H         2.26655838944996    1.01899227186283    4.83635197745992
H         2.77901468951770    2.66861829808613    5.25884363933617
H         1.06174943173019    2.25916825612301    5.15030293962403
B         2.27819999999892   -1.33089999999903    0.17410000000039
O         3.11213670511713   -2.29912284654153    0.69250070567551
C         4.39537420467282   -2.24869814306946    0.05670363859904
C         5.34003508144655   -1.54751131137058    1.03893643835614
H         4.91696812979048   -0.58327859579545    1.30578017973996
H         5.40263004678326   -2.14762608770079    1.94333974497370
H         6.33549832278553   -1.42998103283611    0.62213487252567
C         4.89330503281097   -3.67216866191690   -0.19533774905457
H         5.02820967800891   -4.16940521868349    0.76162730467821
H         5.84543051424631   -3.64838178392930   -0.71784946134708
H         4.17659198677290   -4.24588546767844   -0.77333899574076
C         4.11277268108626   -1.40456443792259   -1.23735790440887
O         2.85537486311891   -0.77769297723595   -0.94540688422842
C         5.14919196703333   -0.32159170527605   -1.53443418529595
H         6.13251657668042   -0.76362206849107   -1.66878289610796
H         4.86836496187525    0.19694261186590   -2.44772515710576
H         5.17658442992327    0.40411365252727   -0.72919213458351
C         3.91241908733467   -2.26229667370848   -2.49424648710280
H         3.13954802105925   -3.00640823634571   -2.32355405657362
H         3.58231647137094   -1.61717128174905   -3.30483753421513
H         4.83735814412553   -2.75051989852754   -2.78569810159911
H        -3.27089821523267   -3.59627482074990   -2.99900758309202
H        -5.12404209787525    1.60750980083959    1.16148744177148
C         0.23589999999868   -1.68139999999957    2.96029999999898
C        -1.05640366044554   -2.07832157227244    3.34244455744671
C         1.21669816519458   -1.53041741413878    3.93263851878893
C        -1.42290694408280   -2.23415387578633    4.66252983803304
H        -1.79862740477577   -2.27515068548541    2.58137847992598
C         0.84931683208993   -1.68473568408068    5.25930309242343
H         2.23445174586625   -1.30387742928973    3.65963767038109
C        -0.46109440017542   -2.02569880368597    5.64878709977029
H        -2.42861013300190   -2.52453414175161    4.93013889580333
O         1.64220453271304   -1.55790745400544    6.35840299243734
C        -0.42440487794864   -2.10010977498461    7.07684363881073
C         0.84842401241292   -1.81294469920462    7.43228045744403
H        -1.23692978896866   -2.33731959161950    7.73269214929712
H         1.32233676045150   -1.75534660704227    8.39292974379808
