   98
 energy: -144.800172072259 gnorm: 0.000256233613 xtb: 6.4.1 (1a32961)
N        -0.92547483658740   -2.04569165380584   -0.34427056884561
C        -2.19315874285274   -1.60873052645695   -0.44346633762158
C        -3.07478672046516   -2.16541139299088   -1.37762064474377
C        -2.64708986978982   -3.18321863467975   -2.20280367721786
C        -1.33573409789805   -3.63296735895613   -2.07998987807834
C        -0.52262836544702   -3.02945341271915   -1.14298312280734
H         0.50416297332923   -3.34148527712791   -1.01422204574721
H        -0.95865663192205   -4.42931518116510   -2.70065516423881
H        -4.08404795962798   -1.79897332584139   -1.46719138489109
C        -2.57843175120577   -0.52814695101513    0.45943061001702
N        -1.60054915552291    0.00262514785750    1.21938170534074
C        -1.90367156989824    0.99095159650828    2.05547919842876
C        -3.17682021810031    1.50816823383850    2.19358674290864
C        -4.19886160298519    0.96977732956269    1.41870196333293
C        -3.89225697569079   -0.05292176118568    0.54611508837996
H        -4.67278636620296   -0.48753405951472   -0.05578044289712
H        -3.36682432157501    2.30439657693966    2.89492715347141
H        -1.07551809472031    1.38111993365023    2.62752474523306
Ir        0.42149999999987   -0.81650000000004    0.91329999999958
B         0.35570781108296    0.58698667019214   -0.62398712653919
O        -0.34387867605948    0.30579866946320   -1.78551746569667
C        -0.49474115102352    1.49748747024939   -2.56471857238527
C        -0.33503788863173    1.17065677691339   -4.04717673976190
H         0.57757627540624    0.61029396814322   -4.22079007753942
H        -0.31880881055111    2.08681375218369   -4.63179379839063
H        -1.17526250394409    0.56159984605345   -4.37202290630067
C        -1.91610167334067    2.02056236681343   -2.30978313024101
H        -2.12284461013774    2.90438726285420   -2.90586618261354
H        -2.62677897883593    1.23977596250285   -2.57398864187960
H        -2.04520997286626    2.25028317359717   -1.25377029868684
C         0.60802350495082    2.43236806935888   -1.96968470072294
O         0.79613940923693    1.88966276212150   -0.65545522418611
C         1.95009277393167    2.29334027921597   -2.69855701456903
H         2.24851090945821    1.24768014895107   -2.69821732473974
H         1.89257882820565    2.67544447578789   -3.71364097141169
H         2.70324283740409    2.85310906528207   -2.14918426778492
C         0.22436281059921    3.90774860969982   -1.87796926817696
H        -0.61687225232363    4.05508736750871   -1.20787474592177
H         1.06927867938751    4.47192370421932   -1.49063655523301
H        -0.02741109444317    4.28801626355034   -2.86474195263628
B         1.58140211886355    0.64754358416179    1.85388836754487
O         2.94543592943362    0.80652641536276    1.82846593250926
C         3.29935808773211    2.09158933647361    2.36314131893214
C         4.58641588704232    1.98278461086391    3.17839194387310
H         4.51328678153993    1.19815312621756    3.92386544471377
H         5.41102214803271    1.74146057257000    2.51266566653486
H         4.79753325573169    2.93031262487705    3.66670619121259
C         3.52896486935837    3.01476385742518    1.16060626219658
H         3.78797329647900    4.02168913942854    1.47405016469004
H         4.34176766225915    2.60906761412611    0.56265446460671
H         2.63311515326574    3.02089735893244    0.54501336591624
C         2.02621380105779    2.47958990381179    3.18756463311041
O         1.00977024615925    1.65615041987713    2.59855428810227
C         1.61262399110082    3.94604170265240    3.08259404252023
H         1.34670403491366    4.19564718422914    2.06091171629231
H         0.74357667104839    4.11669214368145    3.71326570969549
H         2.42134673185280    4.58881445421085    3.41965032549000
C         2.12658546187320    2.08387684046440    4.66610362288821
H         2.37674947645702    1.02996019592741    4.74994552367359
H         2.86846547843930    2.68458068977207    5.18320557022339
H         1.15781614186170    2.23562550444168    5.13637681316878
B         2.27820000000001   -1.33089999999959    0.17409999999991
O         3.12021817958184   -2.27720695338860    0.71711611917393
C         4.40194945634901   -2.23698491313196    0.07527215166074
C         5.34870565899295   -1.51226144756941    1.03780857564217
H         4.92033009201608   -0.54692434365956    1.29098762884279
H         5.42207325227391   -2.09599594855068    1.95183448441188
H         6.33996254904638   -1.39566437768618    0.61110304938659
C         4.90152966956902   -3.66522100364653   -0.14530276754635
H         5.03658067304037   -4.14013849808187    0.82283305603376
H         5.85365043113390   -3.65252686398928   -0.66799602745340
H         4.18538402595763   -4.25286019678182   -0.70979447047309
C         4.11211014931119   -1.42340120286064   -1.23720620791484
O         2.84576496737389   -0.80534371777636   -0.96184677799583
C         5.13299656603979   -0.33125179469002   -1.55316962590522
H         6.12183903061128   -0.76126029492199   -1.68505383771465
H         4.84077802574953    0.17002470926296   -2.47243639671079
H         5.15234481790998    0.40573325189695   -0.75812217827655
C         3.92645861773346   -2.30826093569297   -2.47726036922953
H         3.16005538380343   -3.05640464809393   -2.29557219578051
H         3.59491364144714   -1.68316941505883   -3.30272360146228
H         4.85742268650408   -2.79368635604168   -2.75367715681919
H        -3.31556487175771   -3.61840074499901   -2.92997573438740
H        -5.20973731883511    1.34021382039855    1.49801763331350
C         0.23589999999698   -1.68139999999861    2.96030000000214
O        -1.05588715703473   -2.05438392057899    3.23465348264752
C         0.97989947870293   -1.65934028726875    4.10275170269035
C        -1.14757324167689   -2.22879833625218    4.57773219169634
C         0.10611166413345   -1.98947156254595    5.18088059795397
H         2.02487911050365   -1.43501642804137    4.15851130891620
C        -2.26498509162504   -2.59013765764425    5.30949379542520
C         0.23455482553773   -2.12400721224238    6.56258524541276
C        -2.10972715195522   -2.71587247872031    6.67837945373144
H        -3.21311445137707   -2.76935454383719    4.82642626857534
C        -0.87819726628024   -2.48592249279599    7.29257805726101
H         1.18504157556408   -1.94832791592276    7.04330531021652
H        -2.95812411712233   -2.99827184622300    7.28365066289498
H        -0.79986703547269   -2.59651361393727    8.36452532726725
