   98
 energy: -144.798929022251 gnorm: 0.000167299072 xtb: 6.4.1 (1a32961)
N        -0.91516272682527   -2.02521957064851   -0.36333377745864
C        -2.16263701561506   -1.54887649493001   -0.53676794018570
C        -3.04248746833319   -2.14992609981111   -1.44639713316041
C        -2.63103016896360   -3.23915603234682   -2.18229479336194
C        -1.33572960017255   -3.71694673150130   -1.99674572551711
C        -0.52786327462577   -3.07679339225429   -1.08094853066764
H         0.48236454280126   -3.41568768594725   -0.89998174712382
H        -0.97092347662970   -4.56720989244531   -2.54961393102368
H        -4.04195359549477   -1.76911739558633   -1.57685142734491
C        -2.52515372183165   -0.38714945331398    0.26434389427140
N        -1.58290129197145    0.07600652071986    1.11386046962375
C        -1.87028951488199    1.13450554118720    1.86886488959642
C        -3.08098667000327    1.79513034864130    1.82708313647122
C        -4.05798397666724    1.33839164199710    0.94610130672713
C        -3.77263591392601    0.24127178410595    0.16247386141261
H        -4.51504014527484   -0.12393652190895   -0.52742217418984
H        -3.25973312193714    2.64472297282782    2.46607851240070
H        -1.07760297052059    1.45975092126521    2.52495527515664
Ir        0.42150000000001   -0.81650000000007    0.91330000000004
B         0.42988075893945    0.59502750335602   -0.61722798092247
O        -0.16285035948555    0.29323844551014   -1.82884201475151
C        -0.24742865726563    1.46953193696800   -2.64040709388882
C         0.07475485192272    1.11674407810629   -4.09035281793311
H         1.01260653168368    0.57505841906740   -4.15262191569204
H         0.13207356732935    2.02011477892794   -4.69207850401954
H        -0.71276368757678    0.47997783149921   -4.48624793438047
C        -1.69552543246079    1.97220550907351   -2.55150216225093
H        -1.84922958466583    2.84082751515279   -3.18481433863097
H        -2.36028845963953    1.17379071502029   -2.87565839774795
H        -1.94385390598950    2.21962202451046   -1.52118834989730
C         0.77329609830233    2.43328605032994   -1.95058991145996
O         0.84713300157717    1.90641192396295   -0.61837512793660
C         2.18179503158870    2.31827242508388   -2.54594972195593
H         2.50380114883592    1.28097127429462   -2.49554053425631
H         2.21243446666121    2.68111823598567   -3.56923428104418
H         2.86515952994456    2.90811529847996   -1.93959986861151
C         0.35197730369472    3.90080871970481   -1.91172291405483
H        -0.55826530305298    4.03575473383363   -1.33574397110824
H         1.13958582681306    4.48482137857539   -1.44172471166163
H         0.19896033536156    4.26957170202442   -2.92280742277827
B         1.57858688441068    0.62306331922220    1.89618866818634
O         2.94367241572384    0.77242584323503    1.87694688587636
C         3.31660601568949    2.02078649956184    2.47678238637026
C         4.57093446848247    1.82939058680281    3.32775337131684
H         4.43600372529924    1.02176232195166    4.03943472244928
H         5.40613647874782    1.57634018366278    2.67974136775624
H         4.80622938811192    2.74817531387609    3.85800757812867
C         3.61864657784179    2.98278009189831    1.32122919871198
H         3.89222839179576    3.96947481109983    1.68269557168538
H         4.44347271416486    2.57731160909825    0.73956016586814
H         2.74850397745815    3.03949482113389    0.67215270197515
C         2.03101600101530    2.41747304551175    3.28091838888991
O         1.01410550855499    1.61165084413986    2.67117697257209
C         1.63554120967264    3.88974155044153    3.17374479471587
H         1.40155305241936    4.15002661141763    2.14684699748018
H         0.75013126696345    4.06437356482136    3.78013892757750
H         2.43981524698674    4.52210163032529    3.53974971765937
C         2.09579597708979    2.01936184367676    4.76093309281611
H         2.31786266902684    0.95945677084131    4.85392413357096
H         2.84196644516592    2.60282665816775    5.29118290046533
H         1.12288515122967    2.19742967978609    5.21325341501373
B         2.27820000000012   -1.33090000000020    0.17409999999999
O         3.11410638774941   -2.28108567332117    0.72358443856384
C         4.39380187261988   -2.25976306833417    0.07852295475535
C         5.34690956673275   -1.51581311525534    1.02044725137416
H         4.92747489583167   -0.53960802946623    1.24671585475524
H         5.41949626897815   -2.07595486250710    1.94952518251531
H         6.33846556990592   -1.41792462086921    0.58969659603742
C         4.88932665702441   -3.69312931570707   -0.11348041648954
H         5.03575596879017   -4.14544914813000    0.86379852289472
H         5.83502026296651   -3.69365595798230   -0.64809928217854
H         4.16588813085649   -4.29282398247236   -0.65544393371636
C         4.10059592085472   -1.47303112412921   -1.24761993826657
O         2.85533209392945   -0.81603416171815   -0.96347880406118
C         5.14851672626301   -0.42291218316965   -1.61283484937429
H         6.12431126409404   -0.88661711572607   -1.72736471955038
H         4.87080295100471    0.04619788888154   -2.55335147882144
H         5.19272323474095    0.34713598858445   -0.85055668059118
C         3.86379941620145   -2.38803131921311   -2.45665831442811
H         3.08731932158938   -3.11403952507024   -2.23229255699610
H         3.52152794957615   -1.77987890731549   -3.29046526319587
H         4.77684063405767   -2.90052576973887   -2.74392588118868
H        -3.29912805897653   -3.71022672799994   -2.88709304572294
H        -5.01626257181427    1.83050803852092    0.87623354343525
C         0.23590000000010   -1.68140000000112    2.96029999999838
C        -0.98092758713710   -1.89061425320081    3.52306727271774
C         1.15722097851580   -1.71810925610414    4.06546268092469
O        -0.93356026513694   -2.01042765036428    4.89260354818855
H        -1.96339420430063   -1.97525427224585    3.09914462137726
C         2.54286566976587   -1.63229828509351    4.17445410534084
C         0.37750645991900   -1.90662052193679    5.22401802180448
C         3.10307522192235   -1.71698114039567    5.43253440236125
H         3.13124461274336   -1.50003619583326    3.28093023415069
C         0.93859327724679   -1.98514387489965    6.48933636581231
C         2.31375829122799   -1.88447979929258    6.57302662852084
H         4.17524274066786   -1.65322007426493    5.54907101811783
H         0.32239817282951   -2.12454875047865    7.36383958637873
H         2.78922293926497   -1.94238429197374    7.54065997976293
