  109
 energy: -159.067555518213 gnorm: 0.000244094604 xtb: 6.4.1 (1a32961)
N        -0.91654771140747   -2.01369031273171   -0.38104149588240
C        -2.17677362748912   -1.55802698986171   -0.52143932779290
C        -3.05989944933776   -2.15502563634437   -1.43160924152238
C        -2.63742472375708   -3.21114897606841   -2.20720506384689
C        -1.32761889694539   -3.66363341140358   -2.05911217196267
C        -0.51997253888684   -3.03428100924463   -1.13629560938280
H         0.50033678106826   -3.35597836635598   -0.98273654556675
H        -0.95250193338980   -4.48627877065385   -2.64593813394499
H        -4.07027547068204   -1.79393851521038   -1.53277764090159
C        -2.54721922777709   -0.42176378767574    0.30915072184161
N        -1.59525693591639    0.04947698679711    1.14399339078706
C        -1.89095369343985    1.08438894045571    1.92834311471754
C        -3.11875677351430    1.71232269018075    1.93193778407696
C        -4.10659444274348    1.24832329001889    1.06538805317365
C        -3.81266520537625    0.17731976593833    0.25087270585874
H        -4.56319555379769   -0.19375597329859   -0.42738064737207
H        -3.30508910067518    2.54066549490794    2.59639071588612
H        -1.09156694608258    1.41259160405742    2.57467007528043
Ir        0.42149999999997   -0.81650000000008    0.91329999999986
B         0.34609700998213    0.65037394189605   -0.57545859503117
O        -0.32240530892721    0.38023101628053   -1.75719757832472
C        -0.47322786870444    1.57958404719183   -2.52264009570868
C        -0.26213580785308    1.27660936432652   -4.00390350205524
H         0.66776896085027    0.73900091804953   -4.15652027898538
H        -0.24972277362445    2.20059833211125   -4.57634393561139
H        -1.07814461855513    0.65277695290249   -4.36137604082690
C        -1.91095071523576    2.07505361160439   -2.30804132093137
H        -2.11497675193393    2.95885227464816   -2.90536361526083
H        -2.59911830508654    1.28351091991366   -2.59864884862531
H        -2.07825677090666    2.29668972621028   -1.25574326744872
C         0.59212518504640    2.52668081286448   -1.88155976960385
O         0.75320552318795    1.96722453573633   -0.57133385174789
C         1.95659783810937    2.42585399618343   -2.57453685562622
H         2.27424090707241    1.38586552345098   -2.58590720307539
H         1.92058562529176    2.82556147394480   -3.58394781143995
H         2.68327202912351    2.99018646118425   -1.99483398152628
C         0.17709225045111    3.99307147596036   -1.77989187581017
H        -0.68380779560681    4.11512718997386   -1.12972938151543
H         1.00040520760407    4.56894406910360   -1.36393347219358
H        -0.05740689824898    4.38173434057266   -2.76773899939728
B         1.56730765081528    0.65236455968583    1.86848082618374
O         2.90994763278177    0.92319274892953    1.74066135730196
C         3.22620631064112    2.17715592364131    2.36196082876358
C         4.56430035158648    2.07513209893772    3.09195711370463
H         4.56130090293815    1.25541486204459    3.80160210875414
H         5.35252775300138    1.89573879204802    2.36516930612030
H         4.77566140261644    3.00496846116370    3.61340657154095
C         3.34335855016823    3.20804809282976    1.23244772275282
H         3.55553273826770    4.20077659054382    1.61810349062410
H         4.15196333605254    2.90506484885649    0.57082303987163
H         2.42185156962053    3.20897668996002    0.65657742550735
C         1.98915240999491    2.42537810636784    3.29064930542933
O         0.99287827164261    1.56239977219017    2.72892607236565
C         1.46470079692746    3.86070763538501    3.29445548789823
H         1.12225773243551    4.14670726301863    2.30539692202548
H         0.62343946239927    3.92853544875696    3.97997929675480
H         2.24181490769055    4.54401516559294    3.62593007893605
C         2.21935570637925    1.96760318024382    4.73633093457975
H         2.55398233118963    0.93406391932117    4.74647065552465
H         2.94634250290052    2.60004972489553    5.23663266404409
H         1.27419044766627    2.02024627324325    5.27174082229613
B         2.27819999999950   -1.33090000000016    0.17409999999935
O         3.24290502259511   -2.13077703566908    0.74616663170285
C         4.44047760363509   -2.11537777900560   -0.04152658509260
C         5.41972109120668   -1.16909444479145    0.66133924149297
H         4.93584960666795   -0.20728264889611    0.80948652208197
H         5.65748189278750   -1.58531292649336    1.63723777735874
H         6.33937731030319   -1.05427550880423    0.09620454402452
C         5.03893746741024   -3.52124037194625   -0.08500014050627
H         5.34140569952655   -3.80520529356400    0.91948727718201
H         5.91055819425704   -3.53566672580609   -0.73349228117373
H         4.31407986484600   -4.24891214229562   -0.43408776181964
C         3.94119796714448   -1.56283666176672   -1.42224634087353
O         2.69155363320930   -0.94437849283555   -1.08428137457624
C         4.85772206602436   -0.52471540106207   -2.06819811203252
H         5.84633224898917   -0.94394826532530   -2.23416220997115
H         4.43876982226586   -0.22798538928226   -3.02664894775152
H         4.93129698828265    0.35822293792182   -1.44249689486849
C         3.64059222869199   -2.66859471183005   -2.44353462442933
H         2.96858937274813   -3.40560297015212   -2.01280342275808
H         3.14341419509011   -2.22263860371859   -3.30157595982215
H         4.55394513534125   -3.15315684831637   -2.77508563376389
H        -3.30692287522299   -3.67618115349270   -2.91502638969074
H        -5.07987008311374    1.71458349766646    1.03218775415111
C         0.23590000000098   -1.68140000000315    2.96029999999957
C        -1.06018834586798   -1.94428646224969    3.37038471726521
C         1.22126806140477   -1.68881187348826    3.96002714125983
C        -1.40379593107580   -2.08021143325888    4.72075569569678
H        -1.85659320125518   -2.05115395360719    2.64661942580794
C         0.86449126132855   -1.85470746496125    5.32425341746550
C         2.63593436089703   -1.60658799156357    3.92546424303002
C        -0.45653857564813   -2.02800532413929    5.72012960678667
H        -2.44155487172056   -2.24397091989621    4.97846167028213
N         2.01205096269673   -1.86412199544685    6.05739282052837
C         3.09717830372362   -1.72170915172678    5.21712064123776
H         3.20303848099799   -1.50501426522717    3.02413392403799
H        -0.72577961654210   -2.14363611865544    6.75974136171358
H         2.05696812143248   -1.93070011186486    7.05907396284098
C         4.46416967147590   -1.74170611034053    5.70397810421433
C         4.78835620631143   -2.18646898266034    6.98872182979967
C         5.50653893718551   -1.32485117259328    4.87046907363413
C         6.10135410180564   -2.20695541603263    7.42089552367561
H         4.01606374965949   -2.54018651217693    7.65559125501218
C         6.81646519469717   -1.34619395020545    5.30594783577440
H         5.27245908486816   -0.98183864572465    3.87523201287678
C         7.12200830380123   -1.78548418945929    6.58503140041624
H         6.33042536489861   -2.55891615973905    8.41672569711616
H         7.60664088692456   -1.01765564267509    4.64656055013690
H         8.14668792248688   -1.80313753149817    6.92587395104072
