  118
 energy: -172.757753606929 gnorm: 0.000322157950 xtb: 6.4.1 (1a32961)
N        -0.95157146838211   -2.03940109127192   -0.33173737427730
C        -2.21665810698370   -1.59168481063172   -0.43830889698648
C        -3.13312846536656   -2.22266262364387   -1.28997559713950
C        -2.73805251689835   -3.30831591311715   -2.04025184803944
C        -1.42285229151004   -3.75290088976320   -1.92712772684453
C        -0.58001495374461   -3.08625622963689   -1.06276068585546
H         0.44685649251856   -3.39872082241506   -0.93732657961184
H        -1.06917074159804   -4.59812026145616   -2.49469832458086
H        -4.14794447669961   -1.86826866028097   -1.36410651347414
C        -2.56087633929151   -0.43039586991883    0.37257215098204
N        -1.58880281673500    0.05518087792796    1.17387179178187
C        -1.86089058092431    1.10736852842891    1.94262191933711
C        -3.08647465009766    1.74112725811004    1.96035421484169
C        -4.09432075721646    1.26415414516173    1.12598890869172
C        -3.82412746558740    0.17296703802689    0.32898172507171
H        -4.59099188598792   -0.20775000123328   -0.32487591702107
H        -3.25385131324308    2.58450752560169    2.61063521158538
H        -1.04606887569245    1.44416737235074    2.56496901928147
Ir        0.42150000000008   -0.81649999999986    0.91329999999993
B         0.34248488792290    0.62870228852814   -0.58898497025132
O        -0.33417185438130    0.35247753419955   -1.76367042617855
C        -0.49251032375110    1.55068357842430   -2.53134966028020
C        -0.29654510769857    1.24479976644659   -4.01385839045433
H         0.63137502567418    0.70636494447217   -4.17461052011255
H        -0.28891617092949    2.16788784434045   -4.58775029929264
H        -1.11649288924408    0.62122705666856   -4.36216015425866
C        -1.92779917113598    2.04596755307551   -2.30100403509516
H        -2.13993576481196    2.92736471819376   -2.89888924497933
H        -2.61852267482889    1.25259345153541   -2.57994514807771
H        -2.08163415594148    2.27121392243821   -1.24744682086637
C         0.57981315789979    2.49842301334371   -1.90289144305142
O         0.74873800787180    1.94496024697908   -0.59052050672542
C         1.93921682195390    2.38971075405907   -2.60433207697401
H         2.25404976762207    1.34879273502692   -2.61186957107967
H         1.89774935513968    2.78457696419185   -3.61536232336136
H         2.67126848651028    2.95426596675292   -2.03184975526442
C         0.16842208260824    3.96602552374242   -1.80597996664218
H        -0.68722512674088    4.09284417457717   -1.14993825371650
H         0.99584731821888    4.54278018291242   -1.39964517871586
H        -0.07298573272250    4.34970001990802   -2.79403163160629
B         1.58586399677169    0.65170247937440    1.84418658888213
O         2.90918484764710    0.94823169563911    1.64688778218718
C         3.26653193119233    2.16466706761012    2.31461923230873
C         4.60602425195780    1.97768512306752    3.02952068007492
H         4.60236269266568    1.07807706219345    3.63832768524758
H         5.39271737989773    1.87368089566859    2.28673775231859
H         4.82543622397935    2.84330394984183    3.64845516862696
C         3.41643642652781    3.23201041058716    1.22299264991476
H         3.65134177436615    4.20466949992977    1.64447293021198
H         4.22084669134531    2.93178975564818    0.55542631262353
H         2.49963017675396    3.27750770143829    0.64161691375634
C         2.04311484363954    2.42075242928855    3.26604100304545
O         1.04499167525766    1.52612884207682    2.76051212542424
C         1.48531698595616    3.84497012855057    3.22859139241234
H         1.12674662058962    4.09050075228105    2.23441324183262
H         0.64847249738063    3.91231223048592    3.91964312284006
H         2.24633948440935    4.55850272578239    3.53163992569500
C         2.31019201951577    2.03343961817030    4.72581189624224
H         2.68980038332919    1.01738100129833    4.78592933875330
H         3.01706500303429    2.71740434304899    5.18547248546956
H         1.37146539273791    2.07567135723804    5.27371436909446
B         2.27820000000035   -1.33089999999984    0.17410000000007
O         3.21585331621138   -2.13517220474136    0.78593340022813
C         4.45162006768369   -2.10181467880212    0.06222153167324
C         5.37511743985524   -1.13026431139819    0.80518449385433
H         4.88869253266345   -0.16153403944380    0.86808407020562
H         5.52059121312392   -1.49118185167498    1.82163714716317
H         6.33901725085074   -1.04522969256202    0.31240198337368
C         5.07871425632051   -3.49540748576174    0.06061672057580
H         5.33956215157057   -3.75918922905444    1.08208507112776
H         5.97905612775381   -3.49933312786642   -0.54747435096293
H         4.38508942692690   -4.24174321849227   -0.31190704439954
C         4.00840225870613   -1.56769795614225   -1.34462747934235
O         2.74276522113582   -0.94851226923485   -1.06576384984594
C         4.94762712416544   -0.53566038056086   -1.96583211880030
H         5.94472659644712   -0.95238386162312   -2.07783356250371
H         4.57149166665982   -0.25695840311863   -2.94711718151185
H         4.98827907554632    0.35721741040314   -1.35173250394549
C         3.75138042965774   -2.68905957525753   -2.36074951789325
H         3.06748019697213   -3.42340730417255   -1.94424090190352
H         3.28487323261821   -2.25794038964197   -3.24319017309802
H         4.67916112421066   -3.17307208416794   -2.65037821025287
H        -3.43398028183603   -3.80229681775238   -2.70121536349716
H        -5.06532779168846    1.73530565537266    1.10318310898842
C         0.23590000000222   -1.68139999999996    2.96030000000119
C        -1.03452209048139   -1.96601096689968    3.43400681818083
C         1.25589879192635   -1.65812537272889    3.92319521124375
C        -1.30456164174359   -2.11153535124334    4.79856024582373
H        -1.86205004922445   -2.07997833378443    2.74776573991151
C         0.97826415417783   -1.83069049825980    5.29531156617879
C         2.67030661840030   -1.52934224502653    3.85123576738077
C        -0.31337577182297   -2.04183250437980    5.75793778130506
H        -2.32302462076824   -2.29811200557792    5.10861749315719
O         2.12284166473489   -1.80177699430847    6.01924468107111
C         3.15692023920262   -1.62391182472860    5.12395033930515
H         3.23784310534617   -1.39923400662719    2.95526304546483
H        -0.52098205331531   -2.16775644487300    6.80854450734060
B         4.64434411537352   -1.61838325856442    5.55428323893974
O         5.14121271285167   -1.97258177880309    6.77238113247588
O         5.62596066326590   -1.28852173856605    4.66349216177197
C         6.56325319689735   -1.77164905978127    6.77255377434880
C         6.90090138194637   -1.59269549979631    5.24521787864665
C         6.83714799245038   -0.51224749524917    7.60320898326427
C         7.23617066499790   -2.96782151993481    7.44367671291599
C         7.88130857623564   -0.46558519600156    4.92711615732556
C         7.39289742929705   -2.88471715083985    4.58044983673515
H         6.43310186567174   -0.66312671509787    8.60146174916664
H         6.33634506803810    0.34671227010562    7.16470820684178
H         7.90285294180529   -0.32070030121750    7.67603437144458
H         6.93883361866836   -2.99668114046412    8.48873456405582
H         8.31597292450986   -2.86853261094641    7.38579224775727
H         6.92981865002847   -3.90054466855817    6.98168870393276
H         8.83308315344746   -0.65082891672684    5.41586704331087
H         7.49006847249714    0.49623597323301    5.24053234943224
H         8.03502799207966   -0.43170690502797    3.85196983449107
H         8.37040926675565   -3.16925144251619    4.95575513749696
H         7.45958746802385   -2.71472178394445    3.50866880751435
H         6.68236333033670   -3.68975264797684    4.74935752318777
