  118
 energy: -172.756711422916 gnorm: 0.000310238018 xtb: 6.4.1 (1a32961)
N        -0.96653926234622   -2.00346264537831   -0.35291792554664
C        -2.21157956354884   -1.50775274760164   -0.48641780361889
C        -3.09463968971173   -2.02729045706679   -1.44131978290829
C        -2.68976455469145   -3.05782654681115   -2.26107406565384
C        -1.39924477269681   -3.55969254578729   -2.11189604818828
C        -0.58658907418539   -2.99874053583902   -1.14915081428865
H         0.42175712610643   -3.35636064578438   -0.99676544283905
H        -1.03904399467617   -4.36447401988159   -2.73172549377489
H        -4.08760080682444   -1.62265206603455   -1.54852885270804
C        -2.56454816740500   -0.40495707149842    0.39954457671136
N        -1.58497295375899    0.05512788677294    1.20632058370064
C        -1.85663620171348    1.06005370082655    2.03546112693882
C        -3.09406433468010    1.66532383782533    2.11687437450233
C        -4.11426886866072    1.20749337447313    1.28663083543843
C        -3.84236685836892    0.16799325423301    0.42359352328404
H        -4.62073840980774   -0.20175807592068   -0.22287272676168
H        -3.26252934460267    2.46868539888807    2.81549696805329
H        -1.03302276567624    1.37823560277248    2.65648603104854
Ir        0.42149999999998   -0.81649999999995    0.91330000000001
B         0.32148268989441    0.62273395372334   -0.59180448749432
O        -0.28451851040607    0.32628765303996   -1.80036596312852
C        -0.48818146149076    1.52608337126259   -2.55476709675174
C        -0.20923483000343    1.26380587605682   -4.03231858730622
H         0.75560419409154    0.78491944457372   -4.16013273343825
H        -0.23159615830018    2.19786361819598   -4.58791281191571
H        -0.97393481627345    0.60021731290076   -4.42870429819790
C        -1.96139985122515    1.92362620119905   -2.38024181193521
H        -2.20450990532946    2.79974658366670   -2.97414102924409
H        -2.58565403325109    1.09185775570720   -2.70092642819556
H        -2.17459339149817    2.12038638347309   -1.33132859944415
C         0.49228383993489    2.52742693150892   -1.86390841693326
O         0.63095124753300    1.96567083348781   -0.55175101923344
C         1.88699890281122    2.50829312828658   -2.50137032633703
H         2.25875126906185    1.48626658147510   -2.51453986760980
H         1.86994394356447    2.92250504211052   -3.50529520728442
H         2.55919179341713    3.09851618388029   -1.88347817724923
C        -0.01064810683616    3.96640798661615   -1.77101583288190
H        -0.90273517053917    4.03341955660703   -1.15579260879611
H         0.76048846495625    4.58581078565250   -1.31938342427455
H        -0.22743101222807    4.34808162830410   -2.76552072600368
B         1.60586552197392    0.64793963458771    1.83050621607484
O         2.85423982963064    1.09828933748449    1.50429196303212
C         3.18983292058123    2.28017272750815    2.24102562442204
C         4.58707608381184    2.11103642633891    2.84250542774918
H         4.66761431753474    1.15797064184455    3.35666808656645
H         5.32134247380625    2.11875935394100    2.04074376848621
H         4.80780998615051    2.92657417956854    3.52572059308651
C         3.20972594872119    3.43642241360800    1.23341077250691
H         3.41110564901244    4.38578584305124    1.72051088262277
H         3.98992390605150    3.24159211631029    0.50120061875144
H         2.25984817313781    3.47096258725917    0.70798485093452
C         2.03036852529764    2.39136553459410    3.29987049735478
O         1.09536413156640    1.39569821299952    2.87058197904628
C         1.30909521987809    3.74249524772577    3.32339096514170
H         0.85059612192813    3.94748192218695    2.36145882363679
H         0.52415672295830    3.70537690028754    4.07516539725251
H         1.99988121855865    4.54048135402736    3.57955563301863
C         2.45793559781482    2.04528109000852    4.73153297728123
H         2.96755522558065    1.08715506223924    4.76337459604867
H         3.10489474417513    2.81673982815429    5.13899484002245
H         1.56642653831476    1.97032248161363    5.35031765224511
B         2.27819999999982   -1.33090000000017    0.17410000000028
O         3.22466361132263   -2.11041607544240    0.79719962748593
C         4.45747589773125   -2.05556877694464    0.06899146865736
C         5.33455707501866   -1.01272684500038    0.76600055693196
H         4.82565821431517   -0.05412797597018    0.74279158324769
H         5.43866907131778   -1.29459181722595    1.81063501904840
H         6.31391639044503   -0.94226048419115    0.30091985172590
C         5.14405219099351   -3.41927334333945    0.11983308935490
H         5.42374460258849   -3.62601980876029    1.14927783923496
H         6.03808238041626   -3.41120502388764   -0.49786654781834
H         4.47961956344290   -4.20963528802251   -0.21326928211431
C         3.99118053271082   -1.59448071522434   -1.35388349055470
O         2.72662389121569   -0.97037711711594   -1.08097123260226
C         4.91458932072316   -0.59067079283822   -2.04122969903935
H         5.91415384825379   -1.00521399301744   -2.13932456267898
H         4.52634267630689   -0.36986511843352   -3.03249618622118
H         4.95468888804689    0.33505347717115   -1.47782720373930
C         3.72404910375375   -2.76791596193948   -2.30663807444904
H         3.06606681495847   -3.49109194998144   -1.83260422549323
H         3.22404623374965   -2.38793030862760   -3.19413154602401
H         4.65152121252494   -3.25085683807027   -2.59944598808218
H        -3.35878932981971   -3.46402549570631   -3.00446354558314
H        -5.09723553646431    1.65259640437417    1.31846239054610
C         0.23590000000074   -1.68140000000092    2.96029999999918
C        -1.03420379122899   -2.01670131170297    3.40512570424639
C         1.21192742215605   -1.61226372320657    3.95525003421780
C        -1.34261158544782   -2.16799924864864    4.76265343509962
H        -1.83111044567934   -2.17076395497534    2.69115636176594
O         2.53514791702710   -1.41452684759053    3.77992949256047
C         0.92728580652710   -1.78324736226899    5.32822405644299
C        -0.38199811852903   -2.04818409849229    5.73904152513044
H        -2.36234674753229   -2.39740153096888    5.03953973190714
C         3.12355659352331   -1.45665032007942    5.01394860480012
C         2.18243940594655   -1.67098241865594    5.98533865984735
H        -0.61650125130558   -2.17542658578179    6.78483094973627
B         4.66058203895427   -1.30976786806041    5.16740789748205
H         2.37779196110561   -1.74598667517939    7.03583082648002
O         5.53569323775109   -1.08212270465684    4.15057391418357
O         5.28293476341921   -1.40891629958687    6.37963360274624
C         6.87474825196284   -1.19116512624565    4.65502562019151
C         6.67279949016073   -1.08491791540547    6.21058056117745
C         7.40657191448149   -2.55942524642131    4.21095495916125
C         7.74020903088160   -0.09522527357958    4.03803423115632
C         7.52008597472754   -2.04790981846500    7.03903827104839
C         6.86230919182722    0.34127773196774    6.74122441189511
H         7.36648118368671   -2.60836305048527    3.12542527858503
H         6.78029829195062   -3.35476117583386    4.60769262696549
H         8.43255972735619   -2.70115271092527    4.53460794027742
H         7.80656902415408   -0.26510887093513    2.96687124824597
H         8.73802544428096   -0.12707642107689    4.46552472173024
H         7.30624204814658    0.88624516988253    4.19507243484440
H         8.57487949253591   -1.86838739987436    6.85369724582822
H         7.27944172095094   -3.08044002258277    6.80829256338432
H         7.31232830752342   -1.88081832182901    8.09265901957584
H         7.90324802840941    0.64193746506982    6.68254612067012
H         6.54050602574711    0.36874723198921    7.77947756528595
H         6.24353923064723    1.03601588959610    6.17890042633551
