  115
 energy: -163.644568310191 gnorm: 0.000498224849 xtb: 6.4.1 (1a32961)
N        -3.33305176304289   -3.14127461774185    0.33674917786666
C        -2.83111231445624   -2.00111794635698   -0.45889694363307
C        -3.66537839177207   -1.74220277183686   -1.69804678606602
C        -4.61978434421613   -2.56409349339304   -2.12663553759388
C        -4.93697084023059   -3.73980823957430   -1.35945357839119
C        -4.29701157270854   -3.95573340362910   -0.19963118474721
H        -4.53243900483675   -4.81540356016503    0.40472244366863
H        -5.69156363177604   -4.42409973938025   -1.70694220538288
H        -3.39545779719036   -0.84259786859079   -2.22961356418544
C        -2.95313904899008   -0.74655461123537    0.39833072170533
N        -1.88907786652168   -0.09950063756442    0.86489030571508
C        -2.08351702665625    0.99985573398039    1.58718005152799
C        -3.33651810106750    1.49801295489123    1.89831426676982
C        -4.45186279991295    0.81482722505014    1.43906581060263
C        -4.25013118370103   -0.31745488601573    0.67332220440550
H        -5.08331122736754   -0.88439668912740    0.28728894471081
H        -3.43257523593562    2.39171550580614    2.49394372848223
H        -1.18684629215019    1.49230786380104    1.93274139534731
Ir        0.42149999999994   -0.81650000000025    0.91330000000060
B         0.41486133123540    0.60341727949361   -0.58737821112291
O        -0.05591912009484    0.37880292632985   -1.86906895390701
C        -0.13320462419918    1.61168480850735   -2.58933624454278
C         0.31740090246161    1.39327194624126   -4.03178167718188
H         1.28832588208026    0.91005947161068   -4.06132203376944
H         0.36486297905292    2.34372939376674   -4.55742255133514
H        -0.39828094163720    0.74833120077856   -4.53654145475856
C        -1.60574346898389    2.04871403861468   -2.57976536384164
H        -1.74522661073003    2.97313214416244   -3.13252486390988
H        -2.20672203263161    1.26907162004405   -3.04418095182120
H        -1.95137981962241    2.17637772811566   -1.55546374426265
C         0.78059471004242    2.55913551561745   -1.74562217602140
O         0.77558314050868    1.92998688482301   -0.46069152912626
C         2.23477280331652    2.55511237267805   -2.23510912608340
H         2.60646924695199    1.53330707426679   -2.23162367755320
H         2.32183459686817    2.99276916661747   -3.22538882237727
H         2.84089750364417    3.13182331498365   -1.54057198416448
C         0.28679884204300    3.99994211098798   -1.62503256687975
H        -0.67072188431288    4.04739452197618   -1.11540999323205
H         1.00632348664102    4.57557018820056   -1.04717320027679
H         0.19497484946128    4.44722115175347   -2.61162867729231
B         1.48585593181223    0.63158948756013    1.90218341584999
O         2.83301118667032    0.81676319782623    2.01399150346752
C         3.09438149022688    2.06209450751876    2.68585752267936
C         4.25472915793939    1.88037160206744    3.66153810424962
H         4.07060006738968    1.04976404688112    4.33365996306450
H         5.16099225086240    1.66815043346247    3.10049278275932
H         4.40376156793419    2.78983071938749    4.23657153468881
C         3.48582299036602    3.06642573411182    1.59751800014811
H         3.69479199992348    4.04610938886172    2.01598231605885
H         4.37503628735127    2.69966796494949    1.09053863886927
H         2.68266018674306    3.12494395278717    0.86826532366977
C         1.71388967881503    2.39736501526397    3.35491142575968
O         0.79668135272354    1.57629850451742    2.61645065420503
C         1.28299393937107    3.85842432082232    3.23880696161907
H         1.15045229572956    4.13851873742827    2.19924412020799
H         0.33273985628497    3.98878094658407    3.75053793154141
H         2.02158709726346    4.50558554172833    3.70338281352888
C         1.62491558895707    1.95951938397392    4.82106179534847
H         1.85281740827817    0.90198085009013    4.90544118765723
H         2.29686862255726    2.53955070796660    5.44556575079563
H         0.60483200595493    2.10715462115235    5.16771880487385
B         2.27819999999976   -1.33089999999772    0.17409999999908
O         3.07038999799181   -2.33414954637881    0.67892411430108
C         4.39612171994945   -2.23570970448291    0.13922582723940
C         5.26143388834485   -1.59792088135702    1.23167029363569
H         4.82562660827285   -0.64508672050548    1.51881596909400
H         5.25151577596475   -2.24876349208754    2.10196042019032
H         6.28613564023986   -1.46566588281876    0.89967605337158
C         4.92165962711403   -3.63569764023732   -0.17406573230647
H         5.00257371626065   -4.19405163082224    0.75452930500728
H         5.90350960561990   -3.57243716364907   -0.63412515053293
H         4.24570375780246   -4.17137120240286   -0.83179076549853
C         4.19777015763137   -1.30345650618778   -1.10956475822561
O         2.92120855556555   -0.69597002321676   -0.85635732524208
C         5.24611148914310   -0.20148039815393   -1.25643381575383
H         6.23995573916878   -0.63149443217855   -1.34037462324300
H         5.03491680904919    0.37235324561898   -2.15512018567957
H         5.20417154689617    0.47200320811280   -0.40767892365235
C         4.08393677594221   -2.07116063749251   -2.43272276374231
H         3.29920942546138   -2.81942299657251   -2.36766560571624
H         3.81334516380716   -1.36999533205685   -3.21834321946204
H         5.02632596322665   -2.54386566213236   -2.69148980823274
H        -5.17342601025116   -2.35954532808686   -3.03111104929620
H        -5.45064406064965    1.15545533962166    1.66878608560679
C         0.23590000000093   -1.68140000000487    2.96029999999817
N        -1.06016678049889   -1.95771194210088    3.34363056901384
C         1.03062361668021   -1.78360842093829    4.08221367606956
C        -1.14277769470626   -2.17011621278903    4.68280665354267
O        -2.11032948407273   -2.15868336921879    2.47018408675596
C         2.52110313644920   -1.74468179727181    4.13606340858930
C         0.17880017430599   -2.05616675558987    5.19194992215245
C        -2.23108091502521   -2.42901448275198    5.50345788597329
Si       -2.56704080062655   -3.62330981876954    1.83931308399530
H         2.90956342785810   -1.28540530027349    3.23386313011146
H         2.91070253843226   -2.76141308597389    4.20443211697319
H         2.86657420669956   -1.20118025327686    5.01442929963115
C         0.38782768660166   -2.24172815622354    6.56027273258321
C        -1.98731423883657   -2.61064673961577    6.84943136182754
H        -3.23033957014846   -2.48196497982587    5.09857326968316
C        -1.41291692162394   -2.30245212366679   -0.94268191526239
C        -1.10104861949878   -4.82545058729175    1.62776758308705
C        -3.88266701805624   -4.43645119291601    2.94983329432533
C        -0.69201280754544   -2.52215841250745    7.36815720186933
H         1.38193773503202   -2.16718417707010    6.97543680461937
H        -2.81058968137668   -2.82289479566624    7.51635115769720
H        -0.71150522729881   -2.34893911750698   -0.10499190769840
H        -1.07805533402642   -1.53540106416320   -1.63507183712068
H        -1.41490070620521   -3.26520398512028   -1.45021011663223
H        -0.24127600011388   -4.36563719396114    1.14655687471621
H        -1.38021807596116   -5.69523124619154    1.04063984149220
H        -0.76834467151168   -5.18323043854048    2.59897444730763
H        -4.78081379979912   -3.83030876270816    3.03051532907512
H        -3.49438732085491   -4.59025977752474    3.95177176092485
H        -4.17542276593638   -5.41027945314650    2.57270953977786
H        -0.54348476817819   -2.67254504958595    8.42813316485651
