  124
 energy: -176.411369189647 gnorm: 0.000430515053 xtb: 6.4.1 (1a32961)
N        -0.87473727547890   -1.93209939820739   -0.49005021834210
C        -2.13033082520078   -1.45942563536266   -0.62389721293377
C        -2.96674157084699   -1.91697492192199   -1.65049551963155
C        -2.51085303951348   -2.86678958042787   -2.53685554627927
C        -1.21275699056435   -3.34992514115240   -2.38375026872293
C        -0.44570285032406   -2.84936543684307   -1.35379508354594
H         0.56746124148707   -3.19219740425134   -1.20033261023012
H        -0.81405648531479   -4.09548014037361   -3.05234827495307
H        -3.96411607961974   -1.52406809616959   -1.76138110502190
C        -2.54350501849751   -0.44556983207901    0.33544629086087
N        -1.59865511189090   -0.00996982797020    1.19626380008027
C        -1.92867301685348    0.92332099228455    2.08665190858194
C        -3.18880275312642    1.47583927959671    2.18180546664212
C        -4.17627987491249    1.03508084016757    1.30325451523615
C        -3.84573856799564    0.07078208997042    0.37708960244662
H        -4.59812649561258   -0.28836674734856   -0.30564182409116
H        -3.40033613372160    2.22438620790814    2.92824049210793
H        -1.13021688621474    1.23553045458998    2.74192238833042
Ir        0.42149999999655   -0.81649999999974    0.91330000000060
B         0.39055148275965    0.73631650230525   -0.49899327941748
O        -0.44719269372361    0.66640518226324   -1.60207437366617
C        -0.56586115614487    1.95727688840515   -2.20795757932345
C        -0.61155188980738    1.81738586862176   -3.72740456121978
H         0.22139449824458    1.22241908413593   -4.08725843101600
H        -0.58678462299728    2.79959873411164   -4.19253544101423
H        -1.53453120189132    1.31724391660119   -4.01156774907870
C        -1.89013327122991    2.56130495233388   -1.71691890320530
H        -2.07552641359751    3.52897803558867   -2.17373022720193
H        -2.70016849697301    1.88353125702223   -1.97984053432879
H        -1.87587378879555    2.66232478853262   -0.63332403757970
C         0.68331881064713    2.71246385315971   -1.64854320682054
O         0.97052773805886    1.98397386522649   -0.44814261595635
C         1.91154259662447    2.57493383823220   -2.55642497722836
H         2.10420312749824    1.52151372007231   -2.74434033019029
H         1.77422973260090    3.10910949304273   -3.49223949513224
H         2.77506866137360    2.98346708662566   -2.03654030536133
C         0.45437468395349    4.18713378467089   -1.32101294810298
H        -0.27449652397030    4.30307153673289   -0.52470561755118
H         1.39168986361972    4.62832956115997   -0.99015682818471
H         0.11233523192019    4.71753746349312   -2.20616191481437
B         1.54094104879853    0.62505757799325    1.92794350370327
O         2.90513892236823    0.77375752843496    1.94517240579550
C         3.26870992937086    1.99344766168958    2.60610217957601
C         4.49690660532043    1.75573633765336    3.48391767507221
H         4.33875579416434    0.91971218769758    4.15659081951655
H         5.34646441850151    1.52042981866528    2.84833613465737
H         4.72481174621812    2.64960804974868    4.05819144664301
C         3.61486773493373    3.00352416462892    1.50529446420515
H         3.87201590091373    3.97373173075902    1.91969158423395
H         4.46382972892453    2.62455688385272    0.94063354832116
H         2.77117923687765    3.08734352941806    0.82547842111904
C         1.96158231505081    2.36528300800824    3.38759401494416
O         0.95752328362220    1.59635592091395    2.71342243884769
C         1.58121835408962    3.84411321758402    3.33818048841472
H         1.38610720127816    4.15433135060042    2.31707901490031
H         0.67595180782148    3.99759663805397    3.92049005274603
H         2.37707377466251    4.45129055640898    3.76079487145510
C         1.97823184785899    1.89538450330423    4.84807273212008
H         2.18726191267350    0.82966678209569    4.88973611150287
H         2.71245511115892    2.44471033418739    5.42908697997956
H         0.99235182407740    2.05980775554005    5.27721754325541
B         2.27820000000665   -1.33090000000095    0.17410000000258
O         3.24708925271979   -2.10428808349343    0.77294500257817
C         4.45421649266767   -2.08022653258313    0.00050611980410
C         5.41033297698473   -1.11400956448470    0.70778086901300
H         4.91520918956033   -0.15474588280396    0.82647236481294
H         5.62231935456374   -1.50439857580577    1.69984485075269
H         6.34240401061083   -1.00367874316731    0.16222235679505
C         5.07233340983080   -3.47829498172033   -0.02066230719842
H         5.36242399445118   -3.74778091818318    0.99130945911292
H         5.95414861021148   -3.48716454335546   -0.65523641890150
H         4.36269734464575   -4.21902743401903   -0.37367542069606
C         3.96739614915463   -1.54974141321259   -1.39488480605378
O         2.69519146247873   -0.96231321224619   -1.08753112750715
C         4.86497688892067   -0.48762773065517   -2.02879369329488
H         5.86670374748202   -0.87929194451338   -2.18220433820969
H         4.44887454750553   -0.20180487197084   -2.99175803937362
H         4.90593093953883    0.39699472058782   -1.40269050351317
C         3.71928979734079   -2.66678798573382   -2.41817386735538
H         3.05701645561260   -3.42040442579895   -2.00123055692634
H         3.23257309979699   -2.23602674665807   -3.28994084893359
H         4.65254057363353   -3.12857356586236   -2.72586725279602
H        -3.14490878676392   -3.22539739018898   -3.33344335379832
H        -5.17762658769194    1.43614182996384    1.34763604457469
C         0.23589999999422   -1.68139999999949    2.96030000002092
C        -1.01693694201903   -2.05059812339288    3.42646019152926
C         1.32368932913962   -1.68414688363561    3.85433907658174
C        -1.18964660624579   -2.35086235664203    4.77780248124479
H        -1.86835171277967   -2.13036604711490    2.76576375140385
C         1.19019320103466   -1.99924742539542    5.19012147440494
H         2.30259161041985   -1.45963384872430    3.45934083414551
C        -0.07448110262075   -2.33965186582551    5.64758446785238
C        -2.31469483578944   -2.76827085698708    5.57001196290270
H         2.03959593236784   -2.02164700894999    5.85600310581689
N        -0.48310097071161   -2.73886809664874    6.89081502789750
C        -1.82298359530813   -3.00259316412235    6.87958037727605
C        -3.66291951221135   -2.97352980529314    5.30538412791915
O         0.34734572695124   -2.96047786436291    7.96278615417885
C        -2.65565024667629   -3.43607006922315    7.90053007530849
C        -4.50290610164674   -3.40270922617169    6.31954533796420
H        -4.05078201738769   -2.80524641430079    4.31116020815399
Si        1.04633926956086   -1.80751598325983    8.96202255524494
C        -3.98916665667879   -3.62720496449232    7.60176466428152
H        -2.26397355653715   -3.62296081568625    8.88860751812108
C        -5.97396502651514   -3.59201472529782    6.06570322289169
C         2.90667001684814   -2.20727390173424    8.90901601811612
C         0.64289506886199   -0.05224698665280    8.35031466939174
C         0.33855975704085   -2.13822695836116   10.69881551214288
H        -4.65964648235674   -3.96712107695208    8.37811682823992
C        -6.75858004511500   -2.32997843870476    6.43351012289817
H        -6.34544637126268   -4.43000490211708    6.65956361663948
H        -6.13882555026834   -3.82301625516744    5.01138928186474
H         3.06841916793483   -3.28088190389985    8.94181198331330
H         3.42499547089622   -1.76907313152577    9.75524445349947
H         3.38082386222561   -1.83329040589300    8.00647769516781
H         0.95512245267933    0.08421078918013    7.31818851800859
H         1.13724853504110    0.70569240596213    8.94846561227940
H        -0.42629227215214    0.13938589047007    8.39367173105419
H         0.44719059112708   -3.18582987452819   10.96469853536323
H        -0.71746322738751   -1.89089065153614   10.76050223746319
H         0.85724035574322   -1.55320229704252   11.45069164077377
H        -6.61279518394453   -2.08726659106489    7.48376504309609
H        -7.82145174861514   -2.47635311910704    6.25400076585740
H        -6.41608369816737   -1.48690294357676    5.83743482077469
