  117
 energy: -173.593831086548 gnorm: 0.000194421271 xtb: 6.4.1 (1a32961)
N        -0.80866055321004   -2.08026554202197   -0.47448105279212
C        -2.04380312399760   -1.63257463901825   -0.76831688049544
C        -2.84249507970635   -2.28772536090426   -1.71522176918693
C        -2.35819538342591   -3.39768983709047   -2.37146291793860
C        -1.07442298122235   -3.84113771563679   -2.06625900552590
C        -0.35045074009133   -3.15291344008023   -1.11398187061408
H         0.64767172836525   -3.46365843331699   -0.84325371088406
H        -0.65379153453477   -4.70589465788713   -2.55312902772573
H        -3.83780448241774   -1.93570696177738   -1.93089224549435
C        -2.48996366894874   -0.44116027019091   -0.05747931358007
N        -1.67246376486717    0.02440757108196    0.91053836236064
C        -2.05029411915412    1.10074528426799    1.59683315122878
C        -3.22763317660969    1.78097631993104    1.36297978557985
C        -4.06421995367359    1.33309235472404    0.34398153413354
C        -3.68684475841496    0.21601974221626   -0.36959487725659
H        -4.31379043500964   -0.13769386432363   -1.17157374818192
H        -3.48891522159474    2.63944713272839    1.96038677431860
H        -1.36408175324133    1.41745924699915    2.36653163929363
Ir        0.42149999999985   -0.81650000000018    0.91329999999903
B         0.45393707704215    0.58523239387281   -0.62438738217386
O         0.29683313719383    0.20488688371299   -1.94558171067715
C         0.08327346600384    1.35939775135172   -2.76768392975805
C         0.83915161918062    1.19934205690692   -4.08468762213126
H         1.88650787457933    0.98036384888576   -3.90671633130840
H         0.75174691523063    2.10578809761437   -4.67829118482065
H         0.40764741068793    0.37112902574851   -4.64223043672252
C        -1.42202278876347    1.43354748847235   -3.06084012776158
H        -1.65105431073642    2.25829670930728   -3.72917228574929
H        -1.73181519109273    0.50076538898543   -3.52784486505951
H        -1.98032904505110    1.54757587952270   -2.13404290600375
C         0.57939282021563    2.52669396416114   -1.85180291729115
O         0.47505933294002    1.95955843513688   -0.53887693796459
C         2.05903887526817    2.86018504584322   -2.07748398470951
H         2.65421017931502    1.96238799911893   -1.93005619419427
H         2.22456158194662    3.27120084610846   -3.06910047190138
H         2.36962475508877    3.59053098250768   -1.33476799982902
C        -0.24854980889791    3.80785348318640   -1.93069930941263
H        -1.26734607299395    3.63957590018236   -1.59528248812450
H         0.19920636085806    4.56024157156397   -1.28605367542860
H        -0.25972544001440    4.18259796848067   -2.95086534973507
B         1.34984703862007    0.69762462379554    2.01633181522130
O         2.63419327607657    1.16189140091974    1.97561087716809
C         2.75898539957937    2.35945740220333    2.75196438735729
C         4.07667648205263    2.33216426140976    3.52404910126022
H         4.16668757319251    1.42155783354938    4.10684710130144
H         4.89837355130966    2.35970981335189    2.81409944946334
H         4.14590303638623    3.19610366352034    4.17936068116587
C         2.77458677942547    3.52663363161113    1.75803034394023
H         2.85545811840876    4.48292697463385    2.26631144788776
H         3.62807655335367    3.39912292489807    1.09729499776808
H         1.87295822679924    3.49098484273434    1.15218454404661
C         1.46878709120495    2.33605467002716    3.64323079786891
O         0.62405961035143    1.41078020296340    2.95016796944963
C         0.74552474480678    3.67690503974811    3.77127224153425
H         0.40106386495799    4.02473713707087    2.80306675861085
H        -0.12020352997176    3.54995290906939    4.41705500743049
H         1.40505181410477    4.41881761472408    4.21286187422175
C         1.71255956014521    1.76781791270828    5.04686531616932
H         2.21648185638414    0.80824577333788    4.98018697527581
H         2.30320106915958    2.45256281937543    5.64789639515742
H         0.75087443263998    1.60864016277494    5.53022916679568
B         2.27819999999901   -1.33089999999951    0.17410000000087
O         2.58329992379429   -2.65050370733928   -0.11141648333454
C         3.87358465607739   -2.76713216675029   -0.72258400727818
C         4.79167099609888   -3.46804665930828    0.28644227212708
H         4.83047784299552   -2.90955141346458    1.21613114099361
H         4.37749294158283   -4.44904643701228    0.50634589292316
H         5.79227263535780   -3.58945623721839   -0.11608727719766
C         3.74866137122600   -3.65046124072492   -1.96613211012778
H         3.44505803474449   -4.64739041833475   -1.65628854749251
H         4.70368075839925   -3.72026770088447   -2.47853541617371
H         2.99705863379144   -3.26244208681576   -2.64580145877051
C         4.26579513758654   -1.27049590592702   -1.01103310944945
O         3.28312260969057   -0.52183615845038   -0.28159759106152
C         5.65887016739591   -0.86893095129621   -0.52617075606778
H         6.42022559098413   -1.45941626462694   -1.02790934020113
H         5.81834561376820    0.18131791735094   -0.75408183879442
H         5.74302443219235   -0.99411376650178    0.54737341108692
C         4.11805435196011   -0.87449760307589   -2.48581757969477
H         3.09279138931111   -1.03341222946766   -2.80958677979642
H         4.34167293950195    0.18555058316772   -2.58075330106912
H         4.80081241168882   -1.43439987412949   -3.11734353313083
H        -2.96356738868776   -3.91043917111763   -3.10364438532118
H        -4.98595196580194    1.84664618146265    0.11479920830387
C         0.23589999999874   -1.68140000000422    2.96029999999688
C        -1.11261122799841   -1.94785640816527    3.20916334750608
C         1.08799475856950   -1.75760467634089    4.06839023106023
C        -1.61350739239198   -2.14568125320551    4.48668343873715
H        -1.81110124849347   -2.01182378504160    2.38851414226669
C         0.57159951487829   -1.99852354414202    5.36193420784495
C         2.52386224315701   -1.67731449849180    4.22026205262861
C        -0.78063323420911   -2.16716846108982    5.59215630914753
H        -2.67322401529176   -2.30824771421375    4.62317479242394
N         1.62862330458976   -2.08560071016411    6.29025555008117
C         3.54800436229869   -1.44338675716185    3.31198691013499
C         2.82555481987996   -1.88689270111466    5.58345660020606
H        -1.16878373256453   -2.33781118833560    6.58135163727807
C         1.46072171743653   -2.40900523835912    7.61144161263246
C         4.85096930201121   -1.41207206389052    3.77481340782775
H         3.30629283265226   -1.25580171003497    2.28021664516848
C         4.13236768103982   -1.85077178365217    6.03990204113092
O         0.38065703396869   -2.50433408054629    8.15479641053467
O         2.61858744076636   -2.62708348994428    8.24094135528595
C         5.13913823829752   -1.61222026870970    5.11885523981635
H         5.65957716071879   -1.21655549674014    3.08664498133509
H         4.36979399266515   -1.99975655928856    7.07799839819447
C         2.55652823576443   -3.01608403718399    9.63094847199831
H         6.16324953205164   -1.57737081871855    5.45818325923941
C         3.77120225083835   -3.89404915768803    9.89847198485326
C         2.53052611425525   -1.77303293315124   10.51360562631023
H         1.62981651513078   -3.58656637612158    9.77463930506557
H         4.68317868044434   -3.31957330945796    9.76086101237922
H         3.78245149917453   -4.73866052538956    9.21446566222955
H         3.73256266487689   -4.26359916198828   10.91848146320025
H         3.41937761642596   -1.17159241338546   10.33910331226951
H         2.49639628254568   -2.06939226338568   11.55758885964935
H         1.64906013011580   -1.17669775171832   10.28884711990123
