  117
 energy: -173.595662964186 gnorm: 0.000360111988 xtb: 6.4.1 (1a32961)
N        -0.87900521871939   -1.62078012867552   -0.79244221203277
C        -2.10007781893148   -1.04939710825359   -0.80614242330706
C        -2.85928035472304   -0.98040008113842   -1.97714125581275
C        -2.36888952236608   -1.52593544467413   -3.14451342317063
C        -1.11885160283563   -2.13846457996270   -3.11409882453556
C        -0.42065232758196   -2.15387776730051   -1.92417860665504
H         0.56154611811432   -2.59698476785001   -1.86029424810013
H        -0.69885362068416   -2.58687991701278   -4.00018784477052
H        -3.81079586959639   -0.47411703526191   -1.97531615281293
C        -2.56758602983029   -0.45567532850003    0.44087758631517
N        -1.62896136052376   -0.12975229730732    1.34540918368750
C        -2.01266543928743    0.47216270221166    2.46626511447826
C        -3.32929342868812    0.74892243993795    2.77230371833728
C        -4.31549100605819    0.37056933080065    1.86565455784215
C        -3.92635292655991   -0.22727000240493    0.68739693859498
H        -4.66732626205926   -0.54737556072539   -0.02679175005975
H        -3.58174223628898    1.23447513579632    3.70148661435282
H        -1.22085302068473    0.74185445134755    3.14888349158593
Ir        0.42150000000045   -0.81650000000152    0.91330000000134
B         0.55798799946276    0.80743237497640   -0.41486256476267
O        -0.61835208542635    1.29575065808755   -0.94937882127414
C        -0.36554861957662    2.49381032020996   -1.68836890977488
C        -1.23516128356916    2.51633871709305   -2.94354252355547
H        -1.11241372642831    1.60409911893824   -3.51889034602599
H        -0.97970993585362    3.37453933130973   -3.55943090701922
H        -2.27914580423009    2.59295320152257   -2.64900829621337
C        -0.75313907048938    3.66563195453048   -0.77702264674101
H        -0.57866633541542    4.62152067420334   -1.26218129030966
H        -1.80946409198345    3.58135963325779   -0.53006951612041
H        -0.19053404219487    3.60436710720263    0.15185787520567
C         1.17502143420791    2.40986209933565   -1.94897435141124
O         1.62180306182855    1.53328720164565   -0.90455978214277
C         1.51323345454408    1.72456797763115   -3.27914662005927
H         1.02389609178692    0.75459070744640   -3.32630999829547
H         1.21705516994598    2.33730135778095   -4.12556292325542
H         2.58661480890698    1.55714664625264   -3.31897080614851
C         1.91648081820273    3.74262900384281   -1.86783808330949
H         1.81669712859162    4.19019267171082   -0.88404034016595
H         2.97342810044685    3.57452748506585   -2.05975260696893
H         1.52812832806182    4.42957860742004   -2.61549469190870
B         1.39561026243952    0.77561484213386    1.84592178345594
O         2.71692775956364    0.85897589551199    2.17105785541143
C         3.01089077252786    2.11877776091922    2.78707762721826
C         3.93215889789870    1.89113589241614    3.98468978488191
H         3.50087576090300    1.17866058072155    4.67929224008747
H         4.87407420324188    1.48473286264832    3.62650300726746
H         4.12499633159643    2.83049849138354    4.49564435440586
C         3.74555237441397    2.96231843817578    1.73845854761538
H         3.96241707256849    3.95975490439429    2.10867548364354
H         4.67959915082759    2.46525658407484    1.49020509754774
H         3.14685190061594    3.01365866694172    0.83301705663286
C         1.58532731529391    2.67268376317036    3.14379637399188
O         0.71751818859693    1.88510137866814    2.31495211254524
C         1.37633254010529    4.15495037038938    2.83676534637105
H         1.53580188462733    4.36416621804617    1.78398985516672
H         0.35400965598828    4.42854972848422    3.08747476760238
H         2.05750921279724    4.75733089083470    3.43156467521128
C         1.18108789798340    2.40683060444522    4.60010434626324
H         1.24276269512682    1.34311170490599    4.81552435374102
H         1.81008909697271    2.96260468423870    5.28835682903269
H         0.14821142283939    2.71882079004559    4.73900921246732
B         2.27820000000166   -1.33090000000349    0.17410000000222
O         3.41973969083706   -1.62438201156371    0.87578299422140
C         4.53238705000510   -1.72310653832407   -0.02101827073968
C         5.26418312648434   -0.37816425809424    0.03877930912530
H         4.57492976181432    0.41436423435009   -0.24041394402163
H         5.56967074190285   -0.20542432094635    1.06722621257336
H         6.13993439473784   -0.37013629016128   -0.60353160588130
C         5.46826492802725   -2.83754199600148    0.44308878932672
H         5.90198350905959   -2.55638165699227    1.39878991473657
H         6.26657915257259   -2.98098522895997   -0.27990581090686
H         4.92891854394018   -3.76876691317139    0.57990285534237
C         3.83887871015625   -1.97094297185299   -1.40469774183874
O         2.51036481514858   -1.47955341600825   -1.18034357479631
C         4.46245283588989   -1.22420808100529   -2.58202060650810
H         5.50441459205598   -1.50898783252676   -2.69915733008459
H         3.92286823466686   -1.47851692815459   -3.49089251985464
H         4.39013568709039   -0.15242433733153   -2.43327112941996
C         3.72058206915529   -3.46010471944983   -1.75904216737380
H         3.24626752703060   -4.00152671819801   -0.94471650034908
H         3.09627193178575   -3.56004385833793   -2.64400946371961
H         4.69558050923311   -3.88945023826718   -1.96782304767234
H        -2.93773026554202   -1.47065733369897   -4.06052944593744
H        -5.35958361999153    0.54194904169091    2.08024582580144
C         0.23589999998767   -1.68139999999244    2.96030000001180
C        -0.98458046855973   -2.14245581530199    3.46252000405090
C         1.21126105573680   -1.35844065814012    3.90366288259929
C        -2.13941169161205   -2.75228621051396    2.84780286010897
C        -1.28235339088185   -2.03699092948435    4.84014051724407
C         0.92847683043782   -1.31789778726543    5.26090484965144
H         2.20456993062124   -1.12093545650222    3.55765807319379
C        -3.12654154048206   -2.90995806304378    3.84214991883198
C        -2.36240223141011   -3.22806274469206    1.56401078809504
N        -2.60871829237129   -2.46135175013261    5.06879971778413
C        -0.33637600813450   -1.61287538294155    5.75227408648275
H         1.70484971082967   -1.04475524059894    5.96100034351809
C        -4.35757592038567   -3.46225116882582    3.53386449009136
C        -3.58901791929563   -3.78914776910273    1.26330079326978
H        -1.57740636713059   -3.17121055431682    0.82809110553737
C        -3.21719577981950   -2.43521585023728    6.29524939152615
H        -0.55788972320586   -1.53988661276324    6.80306105486408
C        -4.57885900261880   -3.88477144812689    2.23207551847038
H        -5.12661253708131   -3.57582689755914    4.27704884430966
H        -3.77948948557640   -4.15869181548203    0.26665730049081
O        -2.67308490284801   -2.06434131391091    7.31346201370507
O        -4.48219756116852   -2.86473524707236    6.25365639477904
H        -5.53585125378559   -4.31490901592701    1.97781899551804
C        -5.21223663278509   -2.89411779596250    7.50034792426959
C        -5.81074725441359   -1.52052144302716    7.78322436299233
C        -6.27803104799282   -3.97199450939173    7.36058844609427
H        -4.50085239237343   -3.15503212444669    8.29450302397318
H        -6.46896779030559   -1.22600579973131    6.96927744583932
H        -5.01779727181499   -0.78298366789538    7.88407593671787
H        -6.37682595487596   -1.55479662368071    8.70907740875076
H        -6.97879976341779   -3.70143856025063    6.57520437588247
H        -6.81518972721699   -4.07300471826789    8.29844629826439
H        -5.81901171253850   -4.92479083685619    7.10994735554119
