  117
 energy: -173.593028815019 gnorm: 0.000400259199 xtb: 6.4.1 (1a32961)
N        -0.90587230537175   -1.97132227167915   -0.43692738293110
C        -2.15292505202864   -1.48360944451887   -0.58417190247521
C        -2.99436911099398   -1.95309060973064   -1.60048544504520
C        -2.54939463571136   -2.93007477454152   -2.46351552696514
C        -1.26008849046892   -3.42955395219540   -2.29556127363292
C        -0.48790255760819   -2.91652525621791   -1.27483528009676
H         0.51837975224232   -3.27309265369754   -1.10663677029208
H        -0.87093564991342   -4.19620702214437   -2.94560611247098
H        -3.98568030085689   -1.54872848265023   -1.72301070015508
C        -2.55250336780493   -0.44074948926524    0.35244094536564
N        -1.60120738458827    0.00338551946226    1.20082192148441
C        -1.91859651871930    0.95611259698363    2.07421674705849
C        -3.17373832405049    1.52291451608825    2.16148481376497
C        -4.16593455173847    1.07781053497817    1.29163040963434
C        -3.84790925535710    0.09127849105653    0.38362837960880
H        -4.60501214535307   -0.27166137456937   -0.29159051662778
H        -3.37616068300240    2.28720222887228    2.89423298250990
H        -1.11468001125638    1.27381033319275    2.71996038529221
Ir        0.42150000000000   -0.81649999999986    0.91329999999975
B         0.37981083200569    0.67440444128400   -0.55654777958561
O        -0.39669957389076    0.51240425969221   -1.69355022720637
C        -0.51885627028113    1.76097781464951   -2.38331672949717
C        -0.47570630545093    1.52856527186580   -3.89144155340799
H         0.39361065591005    0.94121038547971   -4.16770919958513
H        -0.45448228732048    2.48115841092419   -4.41489759108215
H        -1.36570259723399    0.98138321402680   -4.19337979984566
C        -1.88483569646018    2.35034247091820   -2.00173817610412
H        -2.07203490745893    3.28242550241684   -2.52666075028972
H        -2.65950310950854    1.63264575035699   -2.26521119366616
H        -1.93209282717246    2.51698928612457   -0.92734333722162
C         0.67547681001051    2.58584074134657   -1.80366536564075
O         0.90787162896801    1.94497454414725   -0.54246168621359
C         1.95819321509852    2.41895787106147   -2.62716850357636
H         2.18813551339938    1.36014817337171   -2.71940859315252
H         1.86266353337739    2.87628812211504   -3.60775156277992
H         2.77868812750237    2.89125358839209   -2.09213216231132
C         0.39326006217103    4.07163616457287   -1.58994164816351
H        -0.38603467273337    4.22048374756891   -0.84880949018406
H         1.29789393034451    4.55845970715272   -1.23316250842405
H         0.09507809630259    4.53309842894663   -2.52783970572963
B         1.55974128040655    0.64439791893308    1.87866128262130
O         2.92455068257585    0.79574908669509    1.88177610718879
C         3.28378343566926    2.05225148348090    2.47397085140487
C         4.52713301681081    1.87685437200291    3.34477258516141
H         4.38958355359158    1.07913639805770    4.06696404292224
H         5.37150922450372    1.61701067630321    2.71152931274734
H         4.75214276315998    2.80402321782008    3.86506862278162
C         3.60004344981267    3.00526400388084    1.31486693609972
H         3.85572736736499    3.99833146529161    1.67186245262849
H         4.44162863422227    2.60333779148479    0.75506186899845
H         2.74273296715985    3.04493826060355    0.64814297859932
C         1.98383929702498    2.45067064462128    3.25412747062454
O         0.97852559617953    1.64065326120752    2.63097195829263
C         1.58754359596032    3.92135831649615    3.13391343102777
H         1.37049001597322    4.17450707203561    2.10153389596916
H         0.69148689662550    4.09684435258589    3.72424865822264
H         2.38407209439798    4.55782306936532    3.50965103269588
C         2.02537996770136    2.05781330283873    4.73666046540228
H         2.24440617628911    0.99828099516282    4.83645631700316
H         2.76390149465189    2.64247410520173    5.27643727815545
H         1.04579504043375    2.23688028874440    5.17394521211099
B         2.27819999999937   -1.33090000000081    0.17409999999973
O         3.18026575431045   -2.19831643708784    0.74918829868645
C         4.42786885444772   -2.16536120583009    0.04462220692384
C         5.38930689627790   -1.32808735272195    0.89469060640324
H         4.93466265392889   -0.36121855476004    1.08926000684977
H         5.53014835739112   -1.82891968855489    1.84917531653564
H         6.35358519120061   -1.21129982671827    0.40997491653355
C         4.97499476354356   -3.58747681520916   -0.08337627140112
H         5.18269179516003   -3.97188180555240    0.91170734376866
H         5.89578238529671   -3.58378679140390   -0.65988629492370
H         4.25449766067050   -4.24816255529086   -0.55373605143117
C         4.04590788094695   -1.47628947615673   -1.31456059373616
O         2.77591470590666   -0.87387509930262   -1.02520029756778
C         5.01491347677781   -0.38879464789481   -1.77699090429667
H         6.01096323778724   -0.80027122073865   -1.91452673552208
H         4.66763004625799    0.01502890971177   -2.72468649295983
H         5.04552054707975    0.42063002307988   -1.05591238527516
C         3.82695005104230   -2.47107589543393   -2.46265824210876
H         3.10581684378201   -3.22981746311880   -2.17216726265736
H         3.42182965291324   -1.93264341233774   -3.31601554651556
H         4.76054858659033   -2.94316081565094   -2.75294814528203
H        -3.18647300443743   -3.29723090381539   -3.25372100091146
H        -5.16216412683854    1.49199619910871    1.32808627945562
C         0.23589999999996   -1.68139999999587    2.96030000000009
C        -1.01547215712436   -2.11426956007982    3.38253804090178
C         1.26626679969883   -1.59356427319977    3.90621411689344
C        -1.22676915774611   -2.38956830696709    4.72870850080140
H        -1.82762750645546   -2.26282398593285    2.68573745146258
C         1.07906495376148   -1.86847655389644    5.25002812494372
H         2.25244060330295   -1.32364341672894    3.56143158085316
C        -2.37947792124606   -2.86488358261068    5.45401081753379
C        -0.17921290977029   -2.27652449949423    5.65862867404036
H         1.89495529176404   -1.79773660469951    5.95025051601360
C        -1.98536750229631   -3.04546285765091    6.79687550728239
C        -3.68162782183851   -3.13751127104667    5.06146461390525
N        -0.63150160221121   -2.69605515009992    6.92664740827742
C        -2.89608075364437   -3.47763002390039    7.74570043935662
C        -4.58445859883954   -3.57690067101653    6.01179968440562
H        -3.97727216291227   -3.00626573810107    4.03212905919026
C         0.19085448136926   -2.84468154491966    8.01347835879073
C        -4.19389131694801   -3.73929324756834    7.33524337668777
H        -2.61353367045414   -3.61163811123929    8.77502971762012
H        -5.60266079917990   -3.79479728199702    5.72663268543426
O         1.33972548341937   -2.45997072662486    8.04491828320936
O        -0.40423136234729   -3.47957449870513    9.02717667605481
H        -4.91444878681821   -4.07803009701287    8.06424133837208
C         0.39780435530577   -3.75578038505464   10.19739574110642
C         0.35302143756184   -2.56683670502177   11.15058155619480
C        -0.16179286051621   -5.02454947993789   10.82558301830752
H         1.42982920347242   -3.91592651816051    9.85931045614987
H        -0.67263388650655   -2.36637952799300   11.45107250147989
H         0.75950801578397   -1.68387289257972   10.66277501560777
H         0.94864805500206   -2.78604346222501   12.03156309850161
H        -1.18055148602156   -4.85451484942935   11.16327690631997
H         0.45280024552607   -5.30875025604229   11.67408918869710
H        -0.16376752794294   -5.83402506269551   10.10045368538222
