  117
 energy: -173.594684488717 gnorm: 0.000311485199 xtb: 6.4.1 (1a32961)
N        -0.92399677353116   -1.98589356521005   -0.42857524285754
C        -2.16958578558474   -1.49467309895549   -0.57101751123327
C        -3.01434536369881   -1.95614164381766   -1.58795582232185
C        -2.57431387585150   -2.93259309032255   -2.45452340146331
C        -1.28697750773291   -3.43724168509867   -2.29033556657011
C        -0.51017688388442   -2.92848912528078   -1.27038175093003
H         0.49645436164106   -3.28630725190131   -1.10799693669862
H        -0.90159073074486   -4.20333000092722   -2.94325840406542
H        -4.00318665912437   -1.54532359708257   -1.70916376818669
C        -2.56519969406294   -0.45374474662114    0.37041667575873
N        -1.60452846608320    0.00674987895373    1.19906738667556
C        -1.91656739570121    0.96394948839687    2.06954595426606
C        -3.17787110695984    1.51358891347035    2.17769167270403
C        -4.18226738013775    1.04444006583323    1.33503358158611
C        -3.86805739130818    0.05705187882814    0.42635163470664
H        -4.63385141869921   -0.32488259472973   -0.22815358747953
H        -3.37560110510028    2.28175598725210    2.90764505241456
H        -1.10466862363540    1.29552490769680    2.69831764577154
Ir        0.42149999999991   -0.81650000000017    0.91330000000029
B         0.35585797840715    0.66798692929206   -0.55565940198420
O        -0.35164351062477    0.45252102721302   -1.72672524045820
C        -0.51943827178317    1.68660418162539   -2.43181270363597
C        -0.37678333332598    1.45025544947853   -3.93300257716396
H         0.54152600410820    0.91656117971733   -4.15344768776799
H        -0.38439286844831    2.39962391525157   -4.46239413512307
H        -1.21233503856650    0.84676591389071   -4.27965173043759
C        -1.94137341425531    2.18347989359424   -2.13105281920221
H        -2.16207130219252    3.09777400722368   -2.67383900795445
H        -2.64912692077537    1.41275934886544   -2.43026643548795
H        -2.05930792399234    2.35232207106967   -1.06246372428599
C         0.58330730035529    2.59272047897996   -1.79459845705857
O         0.78951525863474    1.97481712633110   -0.51717704215582
C         1.91760164874576    2.50774298751322   -2.54580515533841
H         2.21966270670080    1.46576869939283   -2.62139005570456
H         1.84746358702048    2.95755097164276   -3.53195506993802
H         2.67537672092324    3.03230645599779   -1.96840548389988
C         0.19003384433535    4.05731806425258   -1.61276103018777
H        -0.64411179457845    4.15843841081750   -0.92532289322391
H         1.03517401790776    4.60569467299786   -1.20354817703235
H        -0.07670107106851    4.49190014021064   -2.57280476360011
B         1.56364024804845    0.64801707496118    1.86845131795212
O         2.90208060441259    0.90111959512550    1.74988454449902
C         3.25882295904447    2.10135397749484    2.44789335505353
C         4.53836411202940    1.85647807485586    3.24815618458175
H         4.44075542324184    0.96765957346988    3.86380380644608
H         5.36441085709338    1.69830387610738    2.55973846423598
H         4.76311916993808    2.71580220521940    3.87392063385624
C         3.51679795409246    3.16787260074861    1.37642359270194
H         3.75673809488308    4.12951917506062    1.81991227541329
H         4.35274407816695    2.84434035813845    0.76033347705420
H         2.64107150620397    3.24866855934655    0.73802643487006
C         1.98705644285288    2.39578578633022    3.32150815903409
O         0.99023088387287    1.54559628983323    2.74200604453338
C         1.49117557597069    3.84164191336117    3.26959769753573
H         1.20457705146710    4.11238194623070    2.25885619988566
H         0.61730397424629    3.93705702062921    3.90963173143020
H         2.26193307235008    4.51859871228353    3.62741541259629
C         2.14311948518184    1.97721265262396    4.78851135171200
H         2.47791606068588    0.94650961213541    4.85172001315121
H         2.84664695991753    2.62338467285616    5.30511393274860
H         1.17324567587871    2.04828575387679    5.27617568275611
B         2.27820000000082   -1.33089999999802    0.17410000000046
O         3.23189232078018   -2.10897421700576    0.79110675069128
C         4.45579148880074   -2.07802936055196    0.04589437281267
C         5.38439091639788   -1.09240711462911    0.76180946615278
H         4.88825465381518   -0.12920055925284    0.83120772188633
H         5.55078099465287   -1.44935792704938    1.77491606128247
H         6.33922728408068   -1.00139801299250    0.25293868872012
C         5.09133239636140   -3.46819636854262    0.05097795023943
H         5.36958637023224   -3.72015698601379    1.07082578389178
H         5.98300337861698   -3.47307766885977   -0.56974377369826
H         4.39674719588894   -4.22245111143557   -0.30355592571924
C         3.99204504120128   -1.56450624189504   -1.36253547570697
O         2.71909329651913   -0.96444264580498   -1.07946559569748
C         4.90704609958532   -0.51981464992698   -1.99966260550504
H         5.90999945768989   -0.91934996291957   -2.12137586280617
H         4.51437029626108   -0.25286926604265   -2.97778327607106
H         4.93949586935845    0.37724081169771   -1.39097667922503
C         3.74845943785468   -2.69686725762002   -2.36968319175878
H         3.07903093265520   -3.43991278596105   -1.94527474915215
H         3.27173228275835   -2.27883508141108   -3.25287340417877
H         4.68290817839426   -3.16737179818839   -2.66000184409105
H        -3.21413406800630   -3.29482565232242   -3.24484280459197
H        -5.18464316785545    1.44099883130154    1.39202603182209
C         0.23590000000041   -1.68140000000025    2.96030000000282
C        -1.03834600189624   -2.07468846862320    3.37963390196068
C         1.26627544334511   -1.58761609894334    3.89914576108496
C        -1.32841273794499   -2.29503631871041    4.71378395646148
H        -1.82403948843197   -2.22457942829734    2.65272612239994
C         0.98329568023399   -1.81469482318294    5.23159983663727
H         2.26601070050773   -1.36029721240350    3.56916246635284
C        -0.31427183382932   -2.16671251260861    5.65191520714382
H        -2.32160112257832   -2.58820806478965    5.02101577419132
N         1.84452497046922   -1.82632942104181    6.35123846097097
C        -0.25704537725324   -2.39095865656794    7.07214771829662
C         3.18828942020199   -1.56498184379155    6.28445658931346
C         1.08001770977804   -2.18571887527659    7.47427599747697
C        -1.22410037340376   -2.75143207183906    7.99979865090556
O         3.73630581771894   -1.09925831986192    5.30910160053819
O         3.83028590298955   -1.87410123151785    7.41433483515135
C         1.44341006527450   -2.32775724290181    8.80210196809229
C        -0.85222497082966   -2.90118512514083    9.32285425549821
H        -2.24451633760499   -2.91021579940547    7.68701770393693
C         5.26423664415045   -1.69564539974727    7.43154911680488
C         0.46344630640764   -2.68818578425999    9.71459117291693
H         2.45576390091254   -2.16817472615301    9.12897168396543
H        -1.58875422360051   -3.18331686080607   10.06026926168258
C         5.66229175957735   -1.41761694270927    8.87402888229060
C         5.93754424345741   -2.94611860825047    6.87615254629854
H         5.50006493019284   -0.83496196636850    6.79298911438044
H         0.73488431448946   -2.80606025391107   10.75274628316181
H         5.41710177775066   -2.27316855570317    9.49771198261428
H         5.13528161369398   -0.54429486734008    9.24935209700460
H         6.73122753682586   -1.23473637676477    8.92420229138128
H         5.66818551284038   -3.81202217740807    7.47630245480156
H         7.01558767842946   -2.81822111371965    6.89250432987867
H         5.61896081895578   -3.11480914368192    5.85012353733540
