  117
 energy: -173.586039569047 gnorm: 0.000697428275 xtb: 6.4.1 (1a32961)
N        -1.05890880542944   -2.16709611383930   -0.24246474210779
C        -2.35690399216821   -1.82047536341411   -0.20858678972545
C        -3.32673795977092   -2.57962167364823   -0.87371963891083
C        -2.94527777717789   -3.69063791563637   -1.59702524908682
C        -1.59543527717923   -4.02139472171854   -1.64422016121562
C        -0.69871483337452   -3.23250238775185   -0.94741141138528
H         0.35966127070162   -3.44469699966341   -0.94745746336889
H        -1.25156311302539   -4.87881273691014   -2.19942225329000
H        -4.36947183857785   -2.31388328866484   -0.81311018134018
C        -2.69540173175921   -0.63460046802364    0.57887059083087
N        -1.71166684164127   -0.12776706687572    1.33836790033887
C        -1.97498487734715    0.90574771002307    2.12581092731526
C        -3.21124518872470    1.51987036015881    2.18277296855047
C        -4.22649184066568    1.04079517069014    1.36263273520821
C        -3.96635138047382   -0.04936809768486    0.55781992777328
H        -4.73980055352498   -0.43282749422197   -0.08828017455833
H        -3.37711217606680    2.35390707555387    2.84523390779589
H        -1.15086158853075    1.23841296831829    2.73744872858688
Ir        0.42149999999978   -0.81650000000016    0.91329999999901
B         0.07962156276035    0.55269906441300   -0.60462098112178
O         0.12734302092531    0.27521892398050   -1.95646714805947
C        -0.65897026934224    1.22317488945417   -2.68917308233851
C         0.06719871178938    1.60419602436595   -3.97771980678042
H         1.07329783175264    1.95310851761000   -3.76972132831974
H        -0.48683056269716    2.37729450781468   -4.50390549090601
H         0.13724024866001    0.72634878522839   -4.61544492412963
C        -1.97881370442407    0.52605987505549   -3.05010293806697
H        -2.61957455393588    1.17719263985618   -3.63749078265699
H        -1.75345244782586   -0.36759802442360   -3.62804956285734
H        -2.49977507613359    0.21680544334286   -2.14651675634303
C        -0.84880213303319    2.39199547094591   -1.66259887447414
O        -0.56272197946300    1.76391668714971   -0.41029313636240
C         0.16909507503797    3.52405621086392   -1.84827356148465
H         1.17815329513891    3.12309018086654   -1.79319386846088
H         0.01951159556670    4.03816664483434   -2.79307086249146
H         0.04449969559542    4.23842691542657   -1.03698930047861
C        -2.25604428142566    2.98969541104417   -1.61442915383860
H        -2.99013023975142    2.24563362394121   -1.31950005460631
H        -2.27485710340760    3.78694500330222   -0.87499555541848
H        -2.52403279687902    3.40172359078786   -2.58352379755526
B         1.40814580634533    0.85039491861431    1.66995901518615
O         2.30011362496084    1.69230403485919    1.05943268475326
C         2.70669565733070    2.72998905533503    1.96031196486906
C         4.09727996089408    2.35555941510640    2.48509865594663
H         4.05727575743111    1.39450841548224    2.98973141469005
H         4.76385759896479    2.25871725907579    1.63154240522237
H         4.48386721250510    3.11617259405069    3.15703989034679
C         2.79925723375663    4.05473744926198    1.20417710068277
H         3.01754384246263    4.86573226873315    1.89384903179506
H         3.60103860245887    3.98859023979158    0.47338749032282
H         1.87631931955288    4.26246156305448    0.67426099679221
C         1.59997348005910    2.67732582764516    3.06665473315664
O         1.06871141906796    1.35401823905901    2.91527071806916
C         0.44776134435889    3.65504964309304    2.79658446956265
H         0.03304997513987    3.46102160197784    1.80975889811444
H        -0.33306732379916    3.48669611597961    3.53510285833334
H         0.78118819021236    4.68574480701425    2.86919874747388
C         2.10364675395544    2.87243569479894    4.49455153264022
H         2.81315986006728    2.09963907702489    4.76991592339382
H         2.56995114506078    3.84881551180722    4.59426732192095
H         1.26220752472012    2.81136519791046    5.18012609159698
B         2.27819999999978   -1.33089999999928    0.17409999999877
O         2.24099816001818   -2.33563633235563   -0.77935295173075
C         3.45477191088368   -2.36043894870344   -1.53718512552727
C         4.28382547635348   -3.55277977379702   -1.04436971727602
H         4.47196489025728   -3.45205285303209    0.02134730231973
H         3.70866344350460   -4.46328691457551   -1.19448712886749
H         5.22041222967808   -3.63151110605953   -1.58809783729084
C         3.12361901966082   -2.54063914270756   -3.01776246925987
H         2.74661663137460   -3.54692136272064   -3.18136441169188
H         4.01468573906433   -2.39704034459015   -3.62264707160334
H         2.35662650580046   -1.83536246653751   -3.31940585690493
C         4.08836937244246   -0.97835635490395   -1.17523150413556
O         3.50319109157285   -0.69158020198313    0.10566055273180
C         5.61310850848137   -0.95859498502135   -1.11448184047156
H         6.01289644330273   -1.16234292981336   -2.10472500551183
H         5.93981716222575    0.02810414140226   -0.79893330463853
H         6.00359681025058   -1.69006090326704   -0.41712109101153
C         3.61983392918975    0.14030639577443   -2.11695668439511
H         2.53496564668822    0.12903945197165   -2.17803357231261
H         3.91514167419667    1.09175897754991   -1.68176006091033
H         4.06036901198381    0.04122170473922   -3.10483716312989
H        -3.68261808060530   -4.28922477942223   -2.11054620062121
H        -5.20060698138019    1.50672335768987    1.35569609108200
C         0.23590000000301   -1.68140000000150    2.96029999999984
C        -1.05200599176662   -2.10201552405770    3.29103674763393
C         1.05564714787949   -1.36048167565244    4.03983681542381
C        -1.56087823639269   -2.02767788748378    4.58293331291550
H        -1.69862020569296   -2.49048168663097    2.51715655025796
N         2.43386336286023   -1.06621969390922    4.07955976118987
C         0.52550652346092   -1.19662819007045    5.33721607869846
C        -0.79452304163684   -1.52188272009920    5.61460919296879
H        -2.57668519009197   -2.34610544286463    4.77054299798216
C         3.34995178069623   -1.61322819108851    3.21070881691934
C         2.73705210576938   -0.59739830349751    5.36586187196627
C         1.58457053100767   -0.68976039591235    6.17185536459938
H        -1.19663040952155   -1.40065839211480    6.60848274977105
O         3.09315830639398   -2.52455700725149    2.45569087742385
O         4.55886163061962   -1.07516042923004    3.35207032351284
C         3.92815910163397   -0.12790139486508    5.89528820917550
C         1.62887835875934   -0.32473298887674    7.50987919851658
C         5.61904261433150   -1.62340793154881    2.53791896886789
C         3.95257048718992    0.23785007405723    7.23188216818597
H         4.81437683172369   -0.03871343058090    5.29110893031338
C         2.82150173000931    0.13956079458221    8.03294080048134
H         0.74595022034717   -0.40227222956371    8.12539203957777
C         6.69227088887488   -0.55133112399119    2.42670284326329
C         6.15012695018309   -2.90931807428981    3.16349027893765
H         5.17936586059015   -1.83257648689045    1.55832060246765
H         4.87323902832598    0.61038436428785    7.65515044595992
H         2.87761731728457    0.43107966654032    9.07083544011126
H         7.08254269885489   -0.30762453167441    3.41126529524103
H         6.26986201078143    0.34354912543813    1.98142712312097
H         7.50327623938685   -0.91256486288668    1.80193215477183
H         6.53656981757031   -2.71072202669095    4.16051197793856
H         6.94794796334039   -3.31156689983164    2.54591882630203
H         5.35406036880596   -3.64717373706675    3.23226429298571
