   94
 energy: -136.700095456789 gnorm: 0.000178212032 xtb: 6.4.1 (1a32961)
N        -0.91645255008197   -2.05515571155330   -0.35384330789556
C        -2.18000796386818   -1.61401694912965   -0.49902795743292
C        -3.07775453206601   -2.27220686396677   -1.35030243918550
C        -2.66257190944265   -3.37346428541051   -2.06618366766888
C        -1.34744274215450   -3.80803751883609   -1.91744502377847
C        -0.52535370719598   -3.11808013694299   -1.05127355133595
H         0.49905650196687   -3.42512540750311   -0.89404510468155
H        -0.97881431423242   -4.66451249925265   -2.45806633954478
H        -4.09413060880918   -1.92819109435992   -1.44789848317372
C        -2.54318702677828   -0.43130447769846    0.27151913638691
N        -1.60747604672326    0.04845384455287    1.11971773979965
C        -1.90158113673214    1.12173115113865    1.85108656653847
C        -3.11051829231374    1.78316907370571    1.78299791103155
C        -4.07653567033605    1.31466426978497    0.89606596456519
C        -3.78505995672395    0.20163502903823    0.13758951349387
H        -4.51629325199795   -0.17009311865601   -0.56079397767908
H        -3.29553406659515    2.64359412557687    2.40542529972227
H        -1.11576166017933    1.45869627356469    2.50966585512379
Ir        0.42150000000010   -0.81649999999992    0.91329999999998
B         0.41169271661436    0.60510466373839   -0.61033256291976
O        -0.20762257601491    0.30114251188575   -1.80866730006981
C        -0.28139031768081    1.46939490267927   -2.63325144948973
C         0.01153940144439    1.09307407602701   -4.08352468447886
H         0.93950930623118    0.53550151224305   -4.15395103932049
H         0.07385838995060    1.98786814714693   -4.69743261653652
H        -0.79234850767214    0.46452611955083   -4.45913936093849
C        -1.71744179983430    2.00258747682328   -2.52816693431533
H        -1.86196813435269    2.86899004494678   -3.16659458017364
H        -2.40364857024092    1.21604758696384   -2.83611854470172
H        -1.94542056674723    2.26367178490618   -1.49653578206754
C         0.76908136498512    2.42075820206030   -1.97120722353265
O         0.85579624762714    1.90674168597716   -0.63472861751388
C         2.16512031137649    2.27363560296081   -2.58860297441842
H         2.46964459600981    1.23136048209012   -2.53256516302214
H         2.18548326628944    2.62576933590313   -3.61590702770805
H         2.86913271152670    2.85661726341790   -1.99946516037391
C         0.37601634162163    3.89632858716145   -1.94059462018553
H        -0.52190228946399    4.05400027355839   -1.35132124510588
H         1.18208985232180    4.46967599084411   -1.48916638022588
H         0.21366503078855    4.25815068262164   -2.95272194416472
B         1.56300010040623    0.63915404262262    1.87821336812526
O         2.93075214585384    0.75937460812501    1.91017223788421
C         3.30195965090308    2.02654397973724    2.47267183653765
C         4.52760217521047    1.85607708199841    3.36841497338273
H         4.36398813986178    1.08109255197743    4.10984316669373
H         5.37845888121348    1.56622514758334    2.75715892075872
H         4.75842519796158    2.79381011878654    3.86660572593132
C         3.64998259308631    2.93849870816211    1.28978370593196
H         3.92660231923308    3.93509279824798    1.62051153867145
H         4.48540928056172    2.50029342327985    0.74839559015290
H         2.79908101822853    2.98009541236215    0.61450492163212
C         1.99695955459076    2.46976696391931    3.21891745101370
O         0.98747360180704    1.66155073454422    2.59811865889344
C         1.63151789801910    3.94395807645010    3.05076671441776
H         1.43471147041007    4.17268048587799    2.00870683599838
H         0.73077814313132    4.15433183169323    3.62225134213617
H         2.43548290800578    4.57423803419092    3.42087962956450
C         2.00383491025199    2.11924072689589    4.71221163645184
H         2.20060543602200    1.05958337108314    4.85073910642860
H         2.74222279805851    2.70758739055962    5.24801632262016
H         1.01950716574495    2.32979654633947    5.12416865363989
B         2.27820000000064   -1.33090000000081    0.17410000000099
O         3.09280322045631   -2.31032741746709    0.70163282432273
C         4.38105975229090   -2.27701385032405    0.07324089898891
C         5.31994483630272   -1.55249211596923    1.04364423938641
H         4.89925807592660   -0.57898477244452    1.27907331991399
H         5.37055178580258   -2.12612401901994    1.96573332030127
H         6.31971300360979   -1.45222739244031    0.63272159908573
C         4.87966497771274   -3.70520146779277   -0.14522250525332
H         5.02030770005473   -4.17807632944635    0.82312568675093
H         5.82916264899231   -3.69244927133285   -0.67296370207497
H         4.16140575846693   -4.29430589623123   -0.70559695186683
C         4.10477503321289   -1.46080496276807   -1.23820932348140
O         2.86786207533476   -0.79210421668515   -0.94480470354800
C         5.16875934488459   -0.41952996042292   -1.58010130441017
H         6.13803192034852   -0.89549673569008   -1.69959313141913
H         4.90101847144082    0.07148984076803   -2.51228259461213
H         5.22158947165644    0.33501418646666   -0.80307324678630
C         3.85794939408351   -2.34972117376532   -2.46475470523915
H         3.07514639591384   -3.07291993286202   -2.25314919883539
H         3.52001921231530   -1.72224070777385   -3.28604419371283
H         4.76579693163981   -2.86494151802066   -2.76339139082496
H        -3.34349771911901   -3.88802832329079   -2.72694412946935
H        -5.03078796046651    1.81047608949252    0.80206072970022
C         0.23590000000050   -1.68139999999894    2.96029999999933
C        -1.04082823409700   -2.05292551110166    3.37643416742199
C         1.19225341226172   -1.52081977049667    3.96563721851817
C        -1.32430245677982   -2.14162970896886    4.73246813684825
H        -1.81966733377534   -2.27523259288965    2.65878239694907
N         0.93434666956322   -1.60989329709336    5.25963053482713
H         2.22234689610732   -1.31418180756213    3.70568126181722
C        -0.30499329895508   -1.89499543958507    5.63599376772350
H        -2.31354047892246   -2.40736540961981    5.07686462586008
H        -0.46917422030996   -1.94524517674158    6.70493879013399
