   94
 energy: -136.700097422473 gnorm: 0.000211403351 xtb: 6.4.1 (1a32961)
N        -0.91753324789563   -2.05423040560133   -0.35183600316678
C        -2.18155597662410   -1.61388569146459   -0.49552728364548
C        -3.08131277690969   -2.27538576226173   -1.34209081185717
C        -2.66697499457630   -3.37769050387252   -2.05684166876075
C        -1.35096807891388   -3.81059542963078   -1.91082687351738
C        -0.52748881313210   -3.11868656723310   -1.04758162742481
H         0.49731058501791   -3.42507775328378   -0.89164810826839
H        -0.98271464996709   -4.66748283335399   -2.45103504159200
H        -4.09859443890102   -1.93313206140529   -1.43654076629544
C        -2.54293415280878   -0.42811328665377    0.27109904603110
N        -1.60727665870731    0.05164686956853    1.11928811253270
C        -1.89935313003743    1.12822125733774    1.84657478041702
C        -3.10596169530110    1.79343205595024    1.77366300530260
C        -4.07157482661855    1.32524647107579    0.88610969098751
C        -3.78239614113173    0.20849671802080    0.13223199150762
H        -4.51310510719786   -0.16280195661309   -0.56694645036078
H        -3.28954097217043    2.65663183544038    2.39267625695972
H        -1.11383609401538    1.46471495855917    2.50576275834408
Ir        0.42150000000007   -0.81650000000011    0.91329999999997
B         0.41119161534521    0.60612007772383   -0.60889162983767
O        -0.20661180806774    0.30295270858953   -1.80799874400893
C        -0.28239303699249    1.47243638906523   -2.63080785154193
C         0.01354310154356    1.09888922349517   -4.08119050176893
H         0.94201645082724    0.54199068401368   -4.15058340240894
H         0.07652545103095    1.99467666483102   -4.69355274899953
H        -0.78918990150561    0.47042943330685   -4.45942173044250
C        -1.72001760026419    2.00147022664499   -2.52680559978053
H        -1.86641433437090    2.86786571740594   -3.16481855971964
H        -2.40365915057830    1.21316449100818   -2.83593602919562
H        -1.94980528984010    2.26125986582787   -1.49527063936645
C         0.76467736344184    2.42562688188701   -1.96585207786613
O         0.85266651631753    1.90875664357804   -0.63060335216384
C         2.16135104921687    2.28512976738306   -2.58335490985655
H         2.47009419519642    1.24400630199848   -2.52903259051089
H         2.18024733917332    2.63886977709552   -3.61013293187412
H         2.86303619876416    2.87014754523060   -1.99347025839316
C         0.36634399159853    3.89974761675902   -1.93132093800463
H        -0.53136111167440    4.05250140256881   -1.34041015016131
H         1.17081989901821    4.47498203954387   -1.47944922147968
H         0.20125981449833    4.26354549975480   -2.94227819224879
B         1.56423919678738    0.63796361186342    1.87905215164116
O         2.93182734124320    0.76016948053377    1.90740477151112
C         3.30339539042660    2.02599630272239    2.47262704868319
C         4.52998061666128    1.85306547725816    3.36671189639962
H         4.36692821518879    1.07638626206066    4.10650332076157
H         5.38003010245589    1.56430090280195    2.75381105606918
H         4.76182347742404    2.78949291747849    3.86687271076626
C         3.65063089808446    2.94076490145027    1.29168483578741
H         3.92721409520916    3.93664887059852    1.62456755170416
H         4.48590089216468    2.50402799261220    0.74886629525744
H         2.79944289006609    2.98382334846393    0.61689197228653
C         1.99912014307642    2.46751878380476    3.22145227022643
O         0.98936175558539    1.65784533245246    2.60307021669588
C         1.63093669701836    3.94108063495116    3.05311145932922
H         1.43144510178336    4.16863202088784    2.01130707456235
H         0.73103394151193    4.15023781730955    3.62635653269641
H         2.43450885902505    4.57311255923265    3.42103442686680
C         2.00946448262975    2.11819751425926    4.71498551057253
H         2.20657171282204    1.05870368386075    4.85409227041003
H         2.74907609389636    2.70709318040856    5.24850378206533
H         1.02612907934210    2.32909697160846    5.12911039753149
B         2.27819999999997   -1.33090000000005    0.17410000000007
O         3.09372779182495   -2.30856818258432    0.70341938357262
C         4.38227160620926   -2.27460665451180    0.07569553606977
C         5.32039089375864   -1.54949264403784    1.04640043300288
H         4.89867900307631   -0.57652951812869    1.28212993512536
H         5.37171924932588   -2.12341224827410    1.96827294158414
H         6.32003053216982   -1.44799575347477    0.63549399797837
C         4.88159512275048   -3.70273549754990   -0.14174905172011
H         5.02037065587546   -4.17540977050257    0.82698255470278
H         5.83211920705764   -3.68992948406104   -0.66759011323653
H         4.16455315603933   -4.29209860958252   -0.70339042684752
C         4.10629562446559   -1.45893586807319   -1.23626646499558
O         2.86757454441925   -0.79251241214638   -0.94485740790939
C         5.16840842696090   -0.41517558313491   -1.57638016016187
H         6.13923026357729   -0.88850790441650   -1.69356609841240
H         4.90135641243447    0.07474183513853   -2.50934464732861
H         5.21739413653593    0.33981586838109   -0.79952030785715
C         3.86307942710227   -2.34813734224351   -2.46325712512250
H         3.08184297771373   -3.07334464779779   -2.25276539112658
H         3.52442121663832   -1.72119898245734   -3.28466029796303
H         4.77257265613594   -2.86094149263744   -2.76104491007994
H        -3.34915097837963   -3.89436781207921   -2.71464057638370
H        -5.02368474069914    1.82438580776398    0.78793296999686
C         0.23590000000023   -1.68139999999840    2.96030000000028
C        -1.04162733509709   -2.04993483446418    3.37645986044129
C         1.19178155617040   -1.51926219085197    3.96579886239279
C        -1.32648472306809   -2.13313135779191    4.73259079978874
H        -1.82014943727095   -2.27368546109819    2.65892042417093
N         0.93257355411208   -1.60325119643645    5.25985509374261
H         2.22247828651736   -1.31546140477789    3.70599251208996
C        -0.30771795319962   -1.88440310713009    5.63611893764564
H        -2.31644362756530   -2.39610571009215    5.07704033567311
H        -0.47313496594380   -1.92961106143858    6.70509971911978
