   94
 energy: -140.936380260003 gnorm: 0.000230083915 xtb: 6.4.1 (1a32961)
N        -0.93882578583698   -2.04339078220975   -0.35056927524770
C        -2.18783298278489   -1.57059438761942   -0.51258163725950
C        -3.06911626257350   -2.16626433524673   -1.42348509307908
C        -2.65465663725972   -3.24652666623825   -2.17246724017705
C        -1.35756778505068   -3.72052415085360   -1.99774022605769
C        -0.54809510917076   -3.08531648790741   -1.07843322499981
H         0.46385414311598   -3.42151609975875   -0.90275504100869
H        -0.99110501305275   -4.56353589588298   -2.56036856540161
H        -4.07086379140332   -1.78970058244155   -1.54686263565208
C        -2.55469918284117   -0.41816858036060    0.30513786341049
N        -1.60959073624562    0.05033064999839    1.14684356643972
C        -1.90198955670930    1.09316448564061    1.91966282934130
C        -3.12518754052922    1.73335314836313    1.90483129229702
C        -4.10532286408631    1.27224823141298    1.03121076521291
C        -3.81278383101984    0.19077098975323    0.22739557506227
H        -4.55901283376613   -0.17649353963486   -0.45696055966493
H        -3.30927794811708    2.56981882578974    2.55921689133588
H        -1.10459039101805    1.42467870201279    2.56680214202398
Ir        0.42149999999997   -0.81650000000008    0.91329999999998
B         0.41063411489893    0.58245343786352   -0.62876781814423
O        -0.20519864172341    0.26857264733270   -1.82628567013283
C        -0.28930711077047    1.43506368087714   -2.65300496658779
C        -0.00379883611811    1.05812743370627   -4.10431716390611
H         0.92269450822865    0.49873533364296   -4.17867379796894
H         0.05788633966199    1.95279693760249   -4.71834414623084
H        -0.81078869209553    0.43159483486465   -4.47645139802861
C        -1.72723778180932    1.96075636911530   -2.53797740782342
H        -1.88340403499621    2.82126130080929   -3.18147337657568
H        -2.41105168349781    1.16720366439010   -2.83276971593413
H        -1.94599711124728    2.22835662004832   -1.50612072965953
C         0.76026220181337    2.39190260172426   -1.99818236831652
O         0.84815498178391    1.88520672085663   -0.65839442583053
C         2.15575565776800    2.24125725327015   -2.61566552989330
H         2.46044922965540    1.19945491854840   -2.55264329009737
H         2.17505588609406    2.58649574802490   -3.64526534824951
H         2.85993698337784    2.82838582225500   -2.03104303026655
C         0.36505607950181    3.86689322913518   -1.97690427818187
H        -0.52881329024887    4.02800822013684   -1.38246661256425
H         1.17325280581535    4.44579248343294   -1.53662586445972
H         0.19430157870527    4.21974732472335   -2.99076030098714
B         1.57397551900148    0.63946980750592    1.86400331949202
O         2.94039759486898    0.76290711293610    1.88862732957519
C         3.30898348883160    2.03640194299294    2.43984278066154
C         4.54566981484666    1.88089334805327    3.32268239854494
H         4.39836084319958    1.10835970161752    4.07012047914869
H         5.39248010374034    1.59651807155505    2.70333832642470
H         4.77324228916747    2.82302261000908    3.81391695117449
C         3.63607326434033    2.94378448933139    1.24779244793113
H         3.91053816710451    3.94372885850406    1.56987439315494
H         4.46729729129400    2.50786943114290    0.69832308294744
H         2.77647074913320    2.97609347567705    0.58317074069544
C         2.00861628467683    2.47408138727022    3.19709888943858
O         0.99793187490753    1.65910043503873    2.58584236892471
C         1.63387235682185    3.94575739023973    3.02979748260135
H         1.42078535150604    4.16968495016662    1.98991284845821
H         0.74087875278049    4.15412211585910    3.61399146554064
H         2.44023907583511    4.58090572228857    3.38589920862168
C         2.03134393029369    2.12563596407647    4.69067830182924
H         2.24026800204691    1.06841598646705    4.83006965670722
H         2.76865735605250    2.72177509951474    5.21925892335233
H         1.04910528286330    2.32754426567354    5.11206048321269
B         2.27819999999942   -1.33089999999945    0.17410000000117
O         3.07859122759559   -2.31998344028866    0.70468676543707
C         4.37852098406524   -2.28619235629473    0.09993903993494
C         5.30500214593475   -1.58974649733281    1.10222610893348
H         4.88797746446911   -0.61784174992882    1.35000193568502
H         5.33451659154271   -2.18323501790789    2.01260312920727
H         6.31292188032976   -1.48924486373574    0.71206049793071
C         4.86788144184968   -3.71488178417524   -0.13555193296031
H         4.97937738347185   -4.20866798508060    0.82618785648183
H         5.83058043150867   -3.70169716831884   -0.63857768561098
H         4.15827107050398   -4.28502789973893   -0.72567406529114
C         4.13357691668044   -1.44311878363722   -1.20141215436149
O         2.88829951762962   -0.78130483556200   -0.92636194540942
C         5.20286807271888   -0.39217673777612   -1.49347136735210
H         6.17549707856339   -0.86326512678297   -1.60409804631058
H         4.95373259406168    0.12215201244292   -2.41814700600057
H         5.23692476658108    0.34202140798627   -0.69629929965225
C         3.92018497506779   -2.30510060710664   -2.45284895278827
H         3.12946247054377   -3.02971744413480   -2.27967435870542
H         3.60896222074928   -1.65920125139677   -3.27029181975382
H         4.83513047199134   -2.81670352791629   -2.73533841067598
H        -3.32371405409501   -3.71307532798101   -2.87928649580597
H        -5.07288396016952    1.74813563593237    0.98179226675547
C         0.23590000000035   -1.68140000000137    2.96029999999988
C        -1.04299305697530   -2.06063670633124    3.37507188134714
C         1.18954279046692   -1.51612884182131    3.96566927995894
C        -1.34126993381730   -2.15477451350565    4.72639459911684
H        -1.81638495656137   -2.28612556171564    2.65486949218762
N         0.92546323193351   -1.60541317723714    5.26196472071232
H         2.21974108063444   -1.30500508682870    3.71677570938723
C        -0.30780129871224   -1.89451902513584    5.60660129360054
H        -2.32028405985149   -2.42450297475017    5.08927595294664
F        -0.54421470594922   -1.95645713333238    6.94369300244338
