  100
 energy: -154.397079979485 gnorm: 0.000241053462 xtb: 6.4.1 (1a32961)
N        -0.93809220777058   -2.04822526986284   -0.36805773178955
C        -2.18747863909722   -1.57446426020875   -0.50471895009820
C        -3.03237126629516   -2.04952494602106   -1.51346089839443
C        -2.58643597291609   -3.03113162616746   -2.37350645343708
C        -1.29686135272717   -3.52520603396234   -2.20894572710732
C        -0.51826713406579   -2.99694088422042   -1.19879623186312
H         0.49227889542409   -3.34307869737603   -1.03580593001484
H        -0.90853300341587   -4.29613514331743   -2.85415493784690
H        -4.02336129195135   -1.64500592770531   -1.63566381819860
C        -2.59665142899139   -0.53319099193973    0.43714799706781
N        -1.63248530509491   -0.01149981769214    1.21816280156775
C        -1.95492746236299    0.94695338018126    2.07971600214560
C        -3.23801623311080    1.43717988942017    2.22758570221423
C        -4.24824726190097    0.89762848216780    1.43978101068154
C        -3.92056978929896   -0.09262117435227    0.53717347605169
H        -4.69243662305719   -0.53270067392328   -0.07165224742989
H        -3.44430981898735    2.21227661283867    2.94780303265388
H        -1.13468438139623    1.33608151913731    2.66338745685860
Ir        0.42150000000006   -0.81649999999987    0.91330000000034
B         0.37199116102903    0.58301317065859   -0.62718765422516
O        -0.32522267914395    0.30848617413641   -1.78944157523876
C        -0.43666861893799    1.49565150746615   -2.58354234218824
C        -0.26290776142612    1.14636517616106   -4.05912998283601
H         0.64219175576035    0.56864532649912   -4.21284552083608
H        -0.22390214114668    2.05387071670196   -4.65575175368947
H        -1.10923266904970    0.54693807864980   -4.38574600161650
C        -1.84923903907058    2.05296094231167   -2.35622671262012
H        -2.02489186642610    2.93785527494908   -2.96052636056156
H        -2.57280326688590    1.28745837661327   -2.62934853008206
H        -1.99153546556123    2.29126682656383   -1.30394996584548
C         0.67986545524296    2.41130956291747   -1.98305917836837
O         0.84596451346796    1.87198104760893   -0.66349984377735
C         2.02622657825986    2.24095700796783   -2.69675458034515
H         2.30425222202367    1.18990334430555   -2.68443724740772
H         1.98700574347223    2.61627538294754   -3.71510362545844
H         2.78408010533777    2.79085553614087   -2.14394864718361
C         0.32506386297392    3.89430002464090   -1.90164411195398
H        -0.52247106445631    4.06088498447213   -1.24419039672064
H         1.17577994479601    4.44216149156124   -1.50391390422506
H         0.09533432147572    4.27659174647787   -2.89288369418318
B         1.55450774941307    0.66266803389634    1.84789439897670
O         2.91502006441461    0.81848090479332    1.87210969181771
C         3.25657672731491    2.09732666816885    2.43006172113630
C         4.48215379452549    1.95600432029168    3.33081175749051
H         4.33087490804621    1.18585436676834    4.07977430693178
H         5.33906218833187    1.67489085422502    2.72427172236781
H         4.69572919845770    2.90224922251558    3.82021702387683
C         3.59061177643330    3.00891194606215    1.24327197127145
H         3.83419436686928    4.01564101764611    1.56856420319515
H         4.44502789149901    2.59141932683979    0.71567961502622
H         2.74658927943578    3.01956260043716    0.55839237832659
C         1.93917877834575    2.51651630179920    3.17060457973574
O         0.95149136932877    1.66822847524498    2.56599259964920
C         1.53076606737911    3.97567591234049    2.97391852540224
H         1.32992023713278    4.17783849663549    1.92728174886323
H         0.62258377154461    4.17000340661289    3.53928899294504
H         2.31426319098827    4.63674668933960    3.33359961824643
C         1.95633684469847    2.19608955119611    4.67065176496890
H         2.17846461479718    1.14469929139280    4.83201313845105
H         2.68152939749125    2.81246554726886    5.19267813909620
H         0.96890123444911    2.39334558350786    5.08233379599694
B         2.27819999999992   -1.33089999999989    0.17409999999997
O         3.13439937245974   -2.22478608883118    0.77782154972751
C         4.41924100433296   -2.19857266290584    0.14046820415260
C         5.34823360964242   -1.40494673387953    1.06492464140643
H         4.90060642622445   -0.43621463874605    1.26553354018602
H         5.43112542730514   -1.93719176841332    2.00905002082826
H         6.33820922225805   -1.29183273029039    0.63465022878889
C         4.94372446341379   -3.62825957334089    0.00432306196854
H         5.07953027262462   -4.04471981605242    0.99887600006131
H         5.89951000253229   -3.62923051152572   -0.51164698927989
H         4.24185838692671   -4.25937341320021   -0.53020030739538
C         4.12227366367661   -1.46577299157207   -1.21773123985697
O         2.84004977513685   -0.85919196841527   -0.98588373803563
C         5.12249958940614   -0.37110984015873   -1.58621255296364
H         6.12225190118193   -0.78541830887363   -1.67963294989067
H         4.83297704428985    0.06717660270232   -2.53779358660786
H         5.11501365454230    0.41243939409682   -0.83682505231391
C         3.96526806628137   -2.42185727608553   -2.40732265986405
H         3.21636571766768   -3.17762559147957   -2.18865672026171
H         3.62519217029950   -1.85173031638147   -3.26824129183852
H         4.90970311964261   -2.89886167970627   -2.65045916959091
H        -3.22609235043272   -3.40384213477278   -3.15881805931976
H        -5.26723812916174    1.24112126767951    1.53244364368403
C         0.23590000000089   -1.68139999999955    2.96029999999538
C        -1.03792846332644   -2.06543631463674    3.36956734157832
C         1.17215716572066   -1.48642554132098    3.97931293871429
C        -1.37461734000637   -2.11623914966346    4.72560042565059
H        -1.80792299701158   -2.34018366309026    2.66260182656371
N         0.87683393266442   -1.52071167252047    5.27089826824292
H         2.20849080208826   -1.29096030101654    3.74454445234373
C        -2.75158542474471   -2.49296839416316    5.10944064131521
C        -0.35598216806430   -1.79436514804874    5.62227319388411
O        -3.69714264326453   -2.42597983734091    4.35090418174035
O        -2.84498116824659   -2.92739358300234    6.36271492721796
F        -0.59922442013633   -1.73401639599979    6.94901899024704
C        -4.13864149021751   -3.31773440670408    6.81907548209560
H        -4.49868528832038   -4.16880123023937    6.23779169664354
H        -4.84122087214051   -2.48963559105556    6.70999113997944
H        -4.01104940773573   -3.58571245005097    7.86387547665886
