   95
 energy: -144.816767781202 gnorm: 0.000229560378 xtb: 6.4.1 (1a32961)
N        -0.93888663269500   -2.00887071067432   -0.34763987902532
C        -2.20748368847372   -1.57485781889669   -0.42958134662399
C        -3.15493594673173   -2.26361483044973   -1.19728791420876
C        -2.77913681531742   -3.38322315181744   -1.90792628636845
C        -1.45427165430676   -3.80299059185447   -1.83656075786612
C        -0.58458613534725   -3.08706767823397   -1.03951836943006
H         0.45050063754739   -3.38348335511089   -0.94374259376081
H        -1.11247991891122   -4.66898843309849   -2.37941204161301
H        -4.17938499494558   -1.93217430895710   -1.23005818597061
C        -2.52994889699476   -0.35711488570492    0.30670682619853
N        -1.57360777797982    0.13027759151319    1.12016329668596
C        -1.82596598868173    1.23992751160994    1.80946474114326
C        -3.01586903598873    1.93415813203006    1.72853771875365
C        -4.00245424280598    1.45986524872901    0.86975655666414
C        -3.75186362742163    0.30813638463728    0.15445943471638
H        -4.49812038985513   -0.06542943461782   -0.52643970766205
H        -3.16924579212487    2.82356882362756    2.31806489373985
H        -1.02512767511507    1.57929577717689    2.44954220776211
Ir        0.42150000000010   -0.81650000000048    0.91329999999994
B         0.37167630853806    0.63114213123228   -0.57960460298270
O        -0.17940468588581    0.33244711933783   -1.80644133069726
C        -0.28208858205978    1.52177349289553   -2.60016696085464
C         0.10432811511602    1.20604964589024   -4.04250989125204
H         1.06721515751415    0.70775952256453   -4.07971111544278
H         0.14098813287890    2.12017534562676   -4.62921210995526
H        -0.63987344069360    0.54016272276658   -4.47285172593389
C        -1.74922234717627    1.97144354817271   -2.55445137426663
H        -1.90937539719334    2.84420776656955   -3.18046046675320
H        -2.37569657665532    1.15752168986805   -2.91392204586724
H        -2.04292184650422    2.19591833558351   -1.53078852569886
C         0.67753544619306    2.50895835116321   -1.85759470801351
O         0.71964961011064    1.96131608714822   -0.53054157662986
C         2.10991913534408    2.45012536799102   -2.40107088318997
H         2.46295223329137    1.42218914997558   -2.36370471179974
H         2.16519999495067    2.83819612103441   -3.41380078127082
H         2.75230295481287    3.04574285376305   -1.75716395798199
C         0.20524343378190    3.96010199649139   -1.80989471099139
H        -0.73109969361849    4.05450415948449   -1.26838380590943
H         0.95400521417999    4.56188124553360   -1.30045833305097
H         0.07913578317202    4.34137957834939   -2.81983951925278
B         1.58928251612982    0.62626074972643    1.88987321018238
O         2.86002433021967    1.04867830849934    1.62449299870038
C         3.19232452685871    2.21833113478551    2.38881926792141
C         4.54967245143935    2.00274649133389    3.06201818693017
H         4.56117403426722    1.08279248219743    3.63760210303047
H         5.31421412137627    1.92377759777735    2.29375215357522
H         4.78876695711062    2.84310063395890    3.70658131514015
C         3.30739760745613    3.37418234595737    1.38919003375365
H         3.49650393048655    4.31711954916302    1.89265987259049
H         4.13301530481163    3.16267820945858    0.71389594556673
H         2.39826511337012    3.43406722458048    0.79781616057153
C         1.98123671225217    2.36083820547265    3.38642930053319
O         1.06034344078484    1.35357616346664    2.93697399130424
C         1.26357171533497    3.71206609140340    3.32824067355705
H         0.87385095200888    3.89630233116367    2.33209151015912
H         0.42747682962941    3.69459443923601    4.02403285822583
H         1.93720354289236    4.51415871266253    3.61426682047737
C         2.32811156724577    2.05868986537721    4.84881994570897
H         2.79822643952497    1.08592976391662    4.94818861075775
H         2.98962124621045    2.81995550652551    5.25002752503513
H         1.40763795062462    2.05223739804184    5.42896536049632
B         2.27820000000023   -1.33089999999999    0.17409999999948
O         3.17569176137999   -2.18723844435520    0.76913218616185
C         4.42298683577428   -2.17151539915192    0.05787380798699
C         5.36931882912423   -1.26707195094628    0.85247911214920
H         4.91536748864486   -0.28623472448272    0.96081606546198
H         5.49288678577840   -1.68722033717277    1.84741249477040
H         6.33989117056132   -1.19017604208035    0.37338137989682
C         4.99512474757743   -3.58662541839376    0.00540261296888
H         5.23157333786693   -3.90349949123525    1.01757271644463
H         5.90359977277658   -3.59857020596573   -0.58977708880228
H         4.28002388847239   -4.28902921009770   -0.41000010574843
C         4.01637837477129   -1.56229532078858   -1.32886606484938
O         2.76904617976139   -0.90785592207992   -1.03672113663754
C         5.00103426260151   -0.54008220817426   -1.89212780192022
H         5.98377462039528   -0.98877488268003   -2.00547291184578
H         4.65248966401832   -0.20824009987258   -2.86702460487551
H         5.06450377077046    0.32454183124674   -1.24051240866413
C         3.72911395623505   -2.62680911084253   -2.39575488176699
H         3.01260094962677   -3.35260740007777   -2.02075734745462
H         3.29069137567595   -2.14021790334075   -3.26366078725616
H         4.64173879271307   -3.13277602026874   -2.69530685113991
H        -3.49883004133601   -3.92149603672680   -2.50547627205774
H        -4.94128660349454    1.98131078053747    0.76230273749726
C         0.23590000000305   -1.68140000000239    2.96030000000236
N        -1.05399060723825   -1.89299658259226    3.16448781845048
C         1.11250826506503   -1.68562089742784    4.05701687156251
C        -1.54104367862758   -1.98768798877613    4.40346379916624
Br        2.97956731110343   -1.59740137614398    3.80862636227576
C         0.62821081090212   -1.79226213065298    5.34843169265767
C        -0.74026783539045   -1.92048021612339    5.54214480789397
C        -2.94139116864325   -2.17454218063011    4.52334280256952
H         1.30683490770877   -1.78261935307021    6.18769796514318
H        -1.16729159766710   -1.99009447120674    6.52973818243808
N        -4.07423013632263   -2.32100577032797    4.63587067529712
