   95
 energy: -144.811588069485 gnorm: 0.000189432903 xtb: 6.4.1 (1a32961)
N        -1.00051442893798   -2.00811489433401   -0.33512695767760
C        -2.23054965573018   -1.48982878956268   -0.49772147916212
C        -3.13338405154587   -2.05298077268869   -1.40713666975103
C        -2.75659398805346   -3.14642981037778   -2.15812647006647
C        -1.47732489342771   -3.66493722651235   -1.98608613004857
C        -0.64561708024919   -3.06115432488013   -1.06442377596647
H         0.35405325376680   -3.43295789224904   -0.89004179987310
H        -1.13923031159747   -4.51745435426298   -2.55182050820181
H        -4.12124109496968   -1.64150033082461   -1.52874497944112
C        -2.55324143858312   -0.31619926798868    0.31186789870316
N        -1.59045373912254    0.12332538620194    1.14789086989969
C        -1.83447328949526    1.19245465934027    1.90196155451078
C        -3.02823285571333    1.88570994952311    1.87478515773705
C        -4.02800853895679    1.45095108325123    1.01085578794807
C        -3.78402345454564    0.34379639395450    0.22498169367995
H        -4.54696960190290   -0.00298498213618   -0.45121047902194
H        -3.17571097886187    2.74030103268886    2.51464453862421
H        -1.02479352604015    1.49453641408558    2.54938205235756
Ir        0.42150000000003   -0.81649999999977    0.91329999999954
B         0.38746218821252    0.58388323200447   -0.62107925141568
O        -0.12028797526938    0.24309449428098   -1.85614446102931
C        -0.22470731958358    1.41237031765342   -2.68026332762015
C         0.20683059249510    1.07400641745290   -4.10425377111017
H         1.17722572452510    0.58929192618326   -4.10349939600686
H         0.24790402507417    1.97700746400244   -4.70759564359874
H        -0.51507400324787    0.38990668622783   -4.54332846344041
C        -1.70199689663488    1.82978821154708   -2.68093794374826
H        -1.86697163832592    2.68354568448125   -3.33122069950829
H        -2.29960852009504    0.99245660956655   -3.03543487699207
H        -2.02422091090211    2.07095534552364   -1.66981077275113
C         0.69472151204889    2.43476504806031   -1.93478708596918
O         0.70582400748767    1.92049424644977   -0.59355834312785
C         2.14330470617044    2.38698424085141   -2.43385647784615
H         2.51263808053818    1.36719428207591   -2.35533541440956
H         2.22254278729230    2.74789629110698   -3.45498793969344
H         2.75574971320165    3.01144625956815   -1.78832109113930
C         0.19595979134113    3.87768019083162   -1.93855398877197
H        -0.75790470081561    3.96868454270786   -1.42830089307070
H         0.91806455098399    4.50521848820891   -1.42197281390187
H         0.09457464760709    4.23130970651463   -2.96121808698874
B         1.61677177349359    0.62962019063639    1.83943977206617
O         2.89085066391753    1.02403100753386    1.56874931722008
C         3.24580479837781    2.19204315543691    2.32602540011247
C         4.58808943819488    1.94183775403363    3.01578858463862
H         4.56479898234121    1.00892529123029    3.57064134293267
H         5.36423707849634    1.86178364330344    2.25911152757931
H         4.83403217140173    2.76363894011706    3.68144963673287
C         3.40032474488269    3.33510575771215    1.31666439669460
H         3.62153838502414    4.27477120873020    1.81309629787985
H         4.21830043738767    3.08990455576108    0.64358455035108
H         2.49375590729278    3.42187444273401    0.72486498755872
C         2.02906587111587    2.37472608248690    3.30996585431968
O         1.08743167686788    1.38792201725960    2.85990867636987
C         1.34752050820721    3.74397630420754    3.23370605901948
H         0.96401576903687    3.92560985288254    2.23481608421961
H         0.51122605479031    3.75782549755318    3.92891487663603
H         2.04208412192660    4.53119555050759    3.51047831044270
C         2.35393740448331    2.07245023671755    4.77694507641097
H         2.78458228354670    1.08194615440501    4.88251279539670
H         3.03804483226828    2.81239049052306    5.18027519034096
H         1.43051534173852    2.09883864183791    5.35137422601087
B         2.27820000000007   -1.33090000000054    0.17410000000054
O         3.11877623612049   -2.24885629349325    0.75851362842414
C         4.39904231791532   -2.22339838529815    0.10659612889168
C         5.32286327636179   -1.38344103716098    0.99131214885581
H         4.89535602961163   -0.39234598480037    1.10892784190898
H         5.36297423093043   -1.83854864317482    1.97723161391769
H         6.32506471384652   -1.32589446288830    0.57849780060623
C         4.94507471818632   -3.64610281774370    0.00164871675430
H         5.12991569516752   -4.02142209452624    1.00451014215838
H         5.87900561180098   -3.64638149729477   -0.55309160346720
H         4.23573493048578   -4.30949267047029   -0.48210773999958
C         4.07164406929196   -1.53121336566473   -1.26218959805907
O         2.82810888240676   -0.85990939230299   -0.99077912094142
C         5.10501281581824   -0.50666155287038   -1.72442747463636
H         6.08240286447880   -0.97239168178461   -1.81227272438833
H         4.81257103543215   -0.11706509145486   -2.69633713707615
H         5.15403408787016    0.32152175333770   -1.02615680217454
C         3.80609150062571   -2.52969065075186   -2.39633777321125
H         3.05446089523373   -3.25265140716338   -2.09160030127610
H         3.42061383419673   -1.98608448555405   -3.25544517851044
H         4.71810922985007   -3.04465598122245   -2.68174595818842
H        -3.44199869943508   -3.58780221970926   -2.86523642785994
H        -4.97452002143369    1.96624118228039    0.95468759967008
C         0.23590000000077   -1.68140000000079    2.96029999999421
C        -1.07776275938485   -2.02922809561663    3.29353605188267
C         1.12137991120302   -1.56429507183695    4.04679672494510
C        -1.45148072213841   -2.09720876166591    4.62096321607139
H        -1.80707130842891   -2.24068107702049    2.52525651055410
N         0.74831061513045   -1.65221820966346    5.32729168412844
C         2.51814423665109   -1.38104634109869    3.87969344718497
C        -0.51052019215469   -1.88179474033967    5.62194348657793
Br       -3.25746497196834   -2.50933275404458    5.08853946472242
N         3.66134534901680   -1.28122130654878    3.87315579437272
H        -0.76521328907313   -1.91957730024289    6.67148703481544
