   98
 energy: -139.597446757286 gnorm: 0.000174692105 xtb: 6.4.1 (1a32961)
N        -0.89208963584325   -2.02249127264019   -0.39297013355353
C        -2.15511074415490   -1.57674971940284   -0.54041284452199
C        -3.02361628136303   -2.17221420387729   -1.46531334863792
C        -2.58448239251376   -3.21842185161576   -2.24542918683167
C        -1.27310121783328   -3.66283632165966   -2.08716604705391
C        -0.47902728576894   -3.03418332272354   -1.15203712397707
H         0.54186954012717   -3.34966566280085   -0.98829517797129
H        -0.88651748313601   -4.47901715246130   -2.67565938643151
H        -4.03558219591041   -1.81829205819368   -1.57445796664377
C        -2.54467309078401   -0.45641985656541    0.30409579001293
N        -1.60518148329678    0.01320723381374    1.15426673062962
C        -1.92134084129536    1.02807194200219    1.95607119222393
C        -3.15831495058080    1.63827768662900    1.96278720996980
C        -4.13225404161122    1.17782549123247    1.07927510311751
C        -3.81732454928606    0.12654121719567    0.24679276306033
H        -4.55713538978986   -0.24141396229799   -0.44473851420688
H        -3.36125796626805    2.45081060815033    2.64152252412327
H        -1.13013755092211    1.35874441344440    2.61109650082363
Ir        0.42150000000000   -0.81650000000009    0.91329999999997
B         0.38849156028964    0.64113950618076   -0.58304695801881
O        -0.29376415685142    0.38659261238741   -1.76166838982156
C        -0.39999411939713    1.58623333583487   -2.53455155734178
C        -0.21433962740005    1.26601541953025   -4.01557410948154
H         0.69109260502103    0.68947701989352   -4.17345667538287
H        -0.16847896726086    2.18546375515563   -4.59357110227993
H        -1.05860638696421    0.67486134577233   -4.36252574399304
C        -1.81434944347175    2.14095014744227   -2.30954777724126
H        -1.98742026623477    3.03167498674292   -2.90632746046577
H        -2.53668057440932    1.37764583659805   -2.59281889048127
H        -1.96253308111628    2.36934251979733   -1.25581625845096
C         0.70953609685523    2.49192817133802   -1.90839936021128
O         0.85691231170284    1.93595299265801   -0.59519683232074
C         2.06387608143970    2.32942224949133   -2.60959853895402
H         2.33961825373221    1.27753744629508   -2.61064845369222
H         2.03751352013578    2.72024027340106   -3.62284998148926
H         2.81709388763085    2.86855380587047   -2.03974578257545
C         0.35659514618634    3.97490303100715   -1.81402003109929
H        -0.49500376116966    4.13609269932109   -1.16032404532893
H         1.20550720267631    4.51757733017444   -1.40505282213009
H         0.13386294040302    4.36763731081948   -2.80299795950433
B         1.55225967618844    0.64747831621900    1.88302207279869
O         2.92111455774288    0.78888600097489    1.90568393824717
C         3.27603592904915    2.06083402287248    2.46649167813169
C         4.52215336201584    1.91575407039417    3.33873003522849
H         4.39637158894357    1.12622545025270    4.07205743503620
H         5.37081104002550    1.66071689781681    2.70918034340419
H         4.73280726484868    2.85361582656383    3.84573719136882
C         3.58155415970935    2.98873121801695    1.28444229776294
H         3.84580206123649    3.98792366443079    1.61794123601670
H         4.41362905339226    2.57131661279962    0.72176039701594
H         2.71592302211751    3.01849243089817    0.62769086004654
C         1.97584574733017    2.47106646589209    3.23763390145585
O         0.97119503776059    1.66167118278178    2.61334850216052
C         1.58986791766487    3.94376146549207    3.11004901565903
H         1.37360575920404    4.19427297609485    2.07696811404343
H         0.69583238993891    4.12929183674161    3.70036222993216
H         2.39200435133793    4.57591409321895    3.48154610984574
C         2.00972196733451    2.08520872473941    4.72217810484032
H         2.23596562269657    1.02781490872800    4.82521158877523
H         2.73996372805950    2.67829646297246    5.26420392145373
H         1.02492122707180    2.25855499402315    5.14966619455813
B         2.27819999999989   -1.33089999999940    0.17409999999994
O         3.12134747090125   -2.28723922673603    0.70094057196951
C         4.40393365424410   -2.22864088457524    0.06523535179188
C         5.33724942822274   -1.49759067942182    1.03663640494826
H         4.89911307737654   -0.53575684494159    1.28762578355459
H         5.40752952256695   -2.08222757579081    1.95048964309034
H         6.33127536941601   -1.37207523249615    0.61871045642320
C         4.92380361281908   -3.64793234638578   -0.16456772890320
H         5.07040538452547   -4.12672202788632    0.80000343942581
H         5.87335054158216   -3.61754961567677   -0.69156910892934
H         4.21423596133584   -4.24281891276161   -0.72990504338796
C         4.10960808450652   -1.40888028801161   -1.24128034749892
O         2.84908368534867   -0.78635930262867   -0.95375832943131
C         5.13784953912662   -0.32469122646321   -1.56128799389959
H         6.12417079101117   -0.76269803214122   -1.68691003107379
H         4.85363561763571    0.17314583636694   -2.48501094397876
H         5.16059114243228    0.41750728331415   -0.77099192921460
C         3.90996203301149   -2.29043712938844   -2.48178249482442
H         3.14589711449636   -3.03939381898932   -2.29289559625488
H         3.56815051269493   -1.66333178857518   -3.30172822606617
H         4.83782603509478   -2.77473472175309   -2.77065726158173
H        -3.24293115429690   -3.68267617499363   -2.96392742619103
H        -5.11131657094924    1.63166983115127    1.04650519784636
C         0.23589999999780   -1.68139999999876    2.96029999999940
C        -1.04083542886423   -2.07379016694225    3.34817835951194
C         1.20030185618102   -1.53918930901789    3.95581683537290
C        -1.36614873541916   -2.22475808686018    4.68752035773211
H        -1.80586995112231   -2.27237438816039    2.60932034644229
C         0.87538225072884   -1.69617663270677    5.29094383079161
H         2.21613918078750   -1.30937336255233    3.67091197139151
C        -0.41765082916175   -2.03092773072444    5.68103431736206
H        -2.37425465550581   -2.51056367140247    4.95930414064940
H         1.63783766956778   -1.57042541730454    6.04829815751232
C        -0.75299938408483   -2.22189639197139    7.13117264475764
H        -0.34207972080469   -3.16673890920869    7.48809338677957
H        -1.82960280273909   -2.23887254393540    7.28212493041219
H        -0.32439032637148   -1.42330624249082    7.73352546370308
