   98
 energy: -139.595909166441 gnorm: 0.000255030093 xtb: 6.4.1 (1a32961)
N        -0.91815273485610   -2.04616314642489   -0.34275450817799
C        -2.18004658498303   -1.60056301488180   -0.50076768962113
C        -3.08726923853626   -2.28537690215109   -1.32186222851740
C        -2.68285827823805   -3.41112832023296   -2.00306895369132
C        -1.36692519485457   -3.84495520297617   -1.84997125818400
C        -0.53815576672000   -3.13343571399771   -1.00921715457679
H         0.48535640439250   -3.44190325417423   -0.84855450810868
H        -1.00497654175134   -4.71865908558456   -2.36721872928448
H        -4.10409328349035   -1.94164612786616   -1.41914649911833
C        -2.53067980091097   -0.38330391111792    0.21508882943267
N        -1.60047389429354    0.10655255245632    1.06405637058748
C        -1.88266796217447    1.21525916156307    1.74578030033071
C        -3.07161249214550    1.90315738782478    1.62499473870710
C        -4.03011536473453    1.42557656191077    0.73294507247781
C        -3.75110131974835    0.27802356571883    0.02433071933558
H        -4.47364782207389   -0.09910446238002   -0.68067745606151
H        -3.25052221271074    2.78989354354283    2.21164581938980
H        -1.10425038992125    1.55353623303699    2.41206058546618
Ir        0.42149999999993   -0.81650000000018    0.91330000000021
B         0.37889341953721    0.61878806423959   -0.60389036034909
O        -0.22081959622981    0.30397822907616   -1.80951537175529
C        -0.31789743852189    1.47230927656916   -2.63084335938329
C        -0.00258139779160    1.10779673578937   -4.07947670467463
H         0.93820774838826    0.57120497597679   -4.14254526956296
H         0.04542165252235    2.00579234371513   -4.69018654297518
H        -0.78871124413306    0.46248550957748   -4.46442391015270
C        -1.76678170420606    1.97247766925622   -2.54004181712352
H        -1.92584092511664    2.83077239556700   -3.18620453453473
H        -2.43326118086015    1.16869289597507   -2.84703064224765
H        -2.00912036512342    2.23702633986850   -1.51269089859897
C         0.70076577059503    2.44793281113921   -1.95584217917842
O         0.77931104930001    1.93670609408989   -0.61841407724480
C         2.10705854507069    2.33065402660840   -2.55622850510665
H         2.43390245827579    1.29559205609999   -2.49232969595922
H         2.13047789497548    2.67885074101146   -3.58489367161799
H         2.79117542865019    2.93225317245386   -1.96266180456740
C         0.27498845436371    3.91460654906495   -1.93216018318046
H        -0.62960681510265    4.05391663845400   -1.34812408111498
H         1.06557144991430    4.50779832709622   -1.47866697482025
H         0.10959909573044    4.26974693601987   -2.94618482051164
B         1.54761724549324    0.67599553427541    1.84411160636608
O         2.90398705558765    0.90595838845150    1.75120630644411
C         3.24105618359209    2.16213641269054    2.35540434762209
C         4.55063929074569    2.02505893840533    3.13167379736981
H         4.50190954162120    1.20592744645410    3.84108186449885
H         5.35719102093520    1.82008172151881    2.43235562379099
H         4.77129562851497    2.94991484651105    3.65774947866931
C         3.43090445397855    3.16142459903924    1.20842426158853
H         3.67143243412344    4.15400074747678    1.57742207970025
H         4.24412549672914    2.81059328535144    0.57691991240066
H         2.52631003887857    3.18423254837534    0.60667207496131
C         1.98169838678448    2.47161096816919    3.23602273887865
O         0.97783487706563    1.62238240342631    2.66539832058261
C         1.50294207229806    3.92177165431453    3.18287661744325
H         1.20017916823120    4.18944580719146    2.17589983194979
H         0.64353059937584    4.03559158014931    3.83914652395027
H         2.29068403484090    4.59042215993144    3.51925436282044
C         2.14824437939803    2.04998136286464    4.70165489808190
H         2.43155797696976    1.00331782565004    4.75908889690239
H         2.88824243351703    2.66553812924431    5.20388715636570
H         1.19183027050916    2.16324851163478    5.20668453036181
B         2.27819999999817   -1.33089999999848    0.17409999999714
O         3.12447355851769   -2.30361891743576    0.66479851670359
C         4.39080409041349   -2.23851015338565   -0.00329461967148
C         5.33457017950695   -1.46440628259659    0.92334165694504
H         4.89999774850863   -0.49133990191101    1.13451118199793
H         5.41804218993029   -2.00646818717243    1.86169148616217
H         6.32224250480335   -1.35714723077620    0.48596763437992
C         4.93138149771030   -3.65112362269435   -0.21962656356576
H         5.14468188118581   -4.09865589779183    0.74740797676693
H         5.84889215141103   -3.61427908484411   -0.80018718774388
H         4.20621117226305   -4.27759416426886   -0.72814096842811
C         4.04602117536754   -1.45022563278313   -1.31318184871369
O         2.82172824584639   -0.78469575423547   -0.96722258595793
C         5.08727238988604   -0.41308013690295   -1.72907696469059
H         6.05596263536550   -0.88559407809957   -1.86667552706367
H         4.78323912321365    0.04323419128242   -2.66778972271263
H         5.16120827707738    0.36827648032138   -0.98072851980831
C         3.74236914023413   -2.36806902470095   -2.50528078604226
H         2.98772576644317   -3.10044956435123   -2.23173724788400
H         3.34266668649431   -1.76389722766050   -3.31622991739594
H         4.63999457143943   -2.87326442799494   -2.84891659964568
H        -3.37100109613518   -3.94567258341496   -2.64025436625868
H        -4.96831934867519    1.94251746223412    0.59730543895507
C         0.23589999999694   -1.68139999999677    2.96029999999637
C        -1.10856997292007   -1.87464027910911    3.26931302208519
C         1.16588548845824   -1.72080491726282    4.00711279384860
C        -1.55098817419445   -1.94145429844204    4.58118351170239
H        -1.84375336819578   -1.98427749695945    2.48431813040335
C         0.70983245209334   -1.78250908049241    5.31930933870816
C         2.64079844549971   -1.77071580634301    3.75037538073768
C        -0.63925976223111   -1.86547489692948    5.61704868934179
H        -2.60593739594169   -2.06210781099774    4.78796739361073
H         1.42914281640320   -1.78478775036609    6.12748934952968
H         2.95315533079319   -0.93835252017071    3.12879881256247
H         2.88049528556824   -2.67469261878876    3.19426912978253
H         3.19775471676140   -1.77056420384188    4.68514441513781
H        -0.96992094732037   -1.90490126078571    6.64528827893288
