   97
 energy: -142.272285999965 gnorm: 0.000234672325 xtb: 6.4.1 (1a32961)
N        -0.89785654054934   -2.02516899613875   -0.37537918494450
C        -2.15089174993432   -1.56372476518638   -0.53855296686370
C        -3.03763060995651   -2.18923330007261   -1.42347378856373
C        -2.62725068454645   -3.28879836484362   -2.14421655253753
C        -1.32545711677895   -3.75151914981908   -1.96937453338629
C        -0.51089067724192   -3.08643377750284   -1.07801377252957
H         0.50526785248572   -3.41274282084036   -0.90452327495296
H        -0.96085594804841   -4.60996647732307   -2.51003048293965
H        -4.04417337176485   -1.82370073211624   -1.53958751537934
C        -2.51834516490289   -0.40030145642673    0.25701710979133
N        -1.58596310092120    0.06068848163494    1.11681021562112
C        -1.89028672320069    1.10339549425666    1.88771677112372
C        -3.10615716117043    1.75306940221559    1.84716345748290
C        -4.06847274076153    1.30564756294310    0.94616995730032
C        -3.76615912230652    0.22369069860799    0.14847995610659
H        -4.49787552248855   -0.13767540672572   -0.55427603652477
H        -3.29981591461773    2.58787999718363    2.50138433962640
H        -1.10447153348379    1.42632574171379    2.55367495068722
Ir        0.42149999999995   -0.81649999999992    0.91329999999985
B         0.42645765497670    0.61194495739789   -0.60326962722532
O        -0.17274407749417    0.31557314872842   -1.81357918225386
C        -0.26567984187204    1.49610744753679   -2.61738411681339
C         0.04109185522481    1.15221749457394   -4.07290532000560
H         0.98158605706965    0.61683356882486   -4.15030371899036
H         0.08478446812189    2.05897206700347   -4.67084133927968
H        -0.74727289125861    0.51208538667271   -4.46178559813611
C        -1.71279836691949    1.99848157465588   -2.51095610762206
H        -1.87270616726839    2.87152946906709   -3.13670773336598
H        -2.38118473706287    1.20240321381004   -2.83358249400345
H        -1.95149280077314    2.23818230403607   -1.47648276063446
C         0.76151769577518    2.45637122105356   -1.93265266919608
O         0.84927953508750    1.92228133590443   -0.60446737048452
C         2.16400159453576    2.34718221587568   -2.54376670516222
H         2.48952744559498    1.31053880248006   -2.50113233919107
H         2.18215861105496    2.71378902678623   -3.56607751105066
H         2.85299130388130    2.93652582523506   -1.94313757081981
C         0.33930431362512    3.92334675339832   -1.88071548487545
H        -0.56406967522946    4.05350863563137   -1.29296043506655
H         1.13188080028242    4.50564858948685   -1.41694952356979
H         0.17363570304629    4.29746342966837   -2.88788572682536
B         1.56804798638066    0.62358351481313    1.90626113515335
O         2.93946904354746    0.72555740280277    1.95427390503859
C         3.31952202275818    1.99657992136676    2.50113451545910
C         4.54996001035447    1.83277081757991    3.39183413344597
H         4.39341459836673    1.05911602781943    4.13589801069703
H         5.39890228083270    1.54401020130944    2.77759679639621
H         4.77993469875035    2.77286927593819    3.88603549484583
C         3.66260136118975    2.89769938319598    1.30888468284256
H         3.95227225066084    3.89392163369783    1.62999053119786
H         4.48702609302402    2.44823986829726    0.75991947441582
H         2.80412430986111    2.94242253816924    0.64348592483750
C         2.01970510358028    2.45113975138743    3.24724616750397
O         1.00300231199734    1.66070597050621    2.61693796098326
C         1.67628949332641    3.93190839465336    3.09612169374514
H         1.48195897940249    4.17480052797879    2.05694212441558
H         0.77910466201679    4.15043112256987    3.67009477810294
H         2.49057358734711    4.54590924630011    3.47150382538531
C         2.01969991348145    2.08112633602614    4.73615266525567
H         2.20980158727888    1.01797294665373    4.85275302117044
H         2.76120059773723    2.65592598468557    5.28231143621082
H         1.03520202138009    2.29302925368113    5.14625171985220
B         2.27819999999964   -1.33089999999968    0.17409999999948
O         3.08344551405086   -2.33918435968339    0.66493809272992
C         4.37433368056623   -2.29314094829390    0.04357673241843
C         5.31409502751983   -1.61070581444148    1.04364022179490
H         4.89656114465454   -0.64468823678532    1.31347124207608
H         5.35927349316532   -2.21937658350502    1.94312910299839
H         6.31548311758794   -1.49996783514207    0.63938729043486
C         4.86346531440284   -3.71610824952600   -0.22460867573219
H         4.99221267547536   -4.22662629007182    0.72613714494963
H         5.81726024610494   -3.69141176260502   -0.74419532220334
H         4.14496721335508   -4.27743777454886   -0.81250734862382
C         4.11042269759404   -1.42726796545003   -1.23744830591090
O         2.88126708042225   -0.75613437462167   -0.92151984335094
C         5.18688963181444   -0.38651223902665   -1.54067942956910
H         6.15053948080100   -0.86898264892058   -1.67872668365327
H         4.92444552007002    0.14198659041133   -2.45375466156586
H         5.24859916940867    0.33817330031701   -0.73635021406407
C         3.85718970469138   -2.26942560311427   -2.49542511726871
H         3.06313651510545   -2.98823532606564   -2.31222402169192
H         3.53132200195264   -1.60934092207892   -3.29577849004259
H         4.75932562921961   -2.78638458988629   -2.80829389620118
H        -3.30206158379535   -3.78107259609185   -2.82795489741524
H        -5.02983035839712    1.79142524340161    0.87354914822559
C         0.23589999999941   -1.68139999999766    2.96029999999982
C        -0.99838038293345   -2.05019534857943    3.49954759405243
C         1.11854650538045   -1.60092607803945    4.05623164218347
N        -0.86427618728640   -2.13783661902652    4.87281572867669
C        -2.19575531247860   -2.33176755568677    2.86061449355138
C         0.41939761955175   -1.86600828387649    5.21302962774540
H         2.16269565963273   -1.37334338683332    3.98040593129185
H        -1.60663061925990   -2.36815371966293    5.51261602429560
N        -3.19308328335714   -2.58695412453290    2.33666895517968
C         0.87277086983377   -1.89889519290430    6.62951898699800
H         0.32673692621777   -1.17000449116768    7.22774554945343
H         1.93242888457422   -1.66865156087005    6.67943414908587
H         0.70837927031433   -2.88541506101008    7.06242517494771
