  100
 energy: -150.963471309617 gnorm: 0.000168903703 xtb: 6.4.1 (1a32961)
N        -0.92409226317118   -2.01204158140461   -0.36679907605020
C        -2.15394869729759   -1.50564022186857   -0.55990912800300
C        -3.03407051170591   -2.08758540989753   -1.47954883259154
C        -2.64049033175822   -3.19501780961189   -2.20003712612864
C        -1.36409580098911   -3.70708936942655   -1.98961136881179
C        -0.55234598514152   -3.07895983232487   -1.06741663187510
H         0.44547556882528   -3.44272475339167   -0.86730069120040
H        -1.01444257447027   -4.57312891575275   -2.52750630455360
H        -4.01982192282442   -1.68059842342262   -1.63146549881044
C        -2.50725334225551   -0.33561783131868    0.23957784992316
N        -1.56502040547434    0.12608914885350    1.08626256303120
C        -1.85267138671368    1.17354425876975    1.85341313408036
C        -3.06930719481830    1.82659539741505    1.82755774904602
C        -4.04528094748938    1.37481853342353    0.94627137484021
C        -3.75651174857154    0.28757711852754    0.14815157541077
H        -4.50206587142582   -0.07639904670928   -0.53854860430907
H        -3.25027917113783    2.66477033427549    2.48066186899609
H        -1.05803982412811    1.49944991161861    2.50666324408689
Ir        0.42150000000009   -0.81650000000005    0.91329999999994
B         0.46427654303142    0.56831105982760   -0.64237145146995
O        -0.13537804054659    0.27132547835092   -1.84991614972304
C        -0.19874233863467    1.44620011501580   -2.66709156687142
C         0.12058334323293    1.08031977419322   -4.11434745153718
H         1.05136026439633    0.52620964365790   -4.17279216997296
H         0.18972728085477    1.97910410043569   -4.72142914826709
H        -0.67475838610626    0.45148718049779   -4.50705367895871
C        -1.63904120364663    1.97104898385991   -2.58426673703800
H        -1.77661914210396    2.84153275716648   -3.21853945740597
H        -2.31445588571599    1.18297046789100   -2.91142158976947
H        -1.88822520465977    2.22274484227703   -1.55533664407902
C         0.83671889674239    2.39770926914080   -1.97998594662613
O         0.91519766422530    1.86538013158300   -0.64928120494805
C         2.24011201073972    2.27475011552168   -2.58513027064793
H         2.55821851191685    1.23652716212467   -2.53349479697298
H         2.26422955722538    2.63379124744467   -3.60976054411206
H         2.93085437905625    2.86451018077645   -1.98708991941282
C         0.42794278879000    3.86844365017927   -1.93000465027966
H        -0.47704487737164    4.00747595419371   -1.34696835454566
H         1.22341676218290    4.44284567050587   -1.46163663440360
H         0.27168430599030    4.24492992596537   -2.93760800400342
B         1.58420181739072    0.61955410657014    1.89216098230652
O         2.95359602951051    0.66961629284142    2.00423529931851
C         3.35623259238289    1.95230788103719    2.50834031690793
C         4.53793971469781    1.78844980011688    3.46189692164359
H         4.31308226618798    1.07581408592489    4.24842173733316
H         5.39633037693129    1.41951568898752    2.90645347033128
H         4.79374980927393    2.74684442980014    3.90534044208658
C         3.78701354210964    2.77880890464722    1.29118911309036
H         4.09273404552560    3.78098512215646    1.57587332690307
H         4.62333169510571    2.27724700316235    0.80993835781242
H         2.96456825219035    2.81447155113865    0.58120978527331
C         2.04107876686504    2.49015394194973    3.16858752996893
O         1.02627135411199    1.69884933448782    2.53533102245907
C         1.75418454857795    3.96888346498878    2.91650734149505
H         1.61068354941542    4.15332446310702    1.85723766178174
H         0.84162251357728    4.24820706682115    3.43731203266715
H         2.57156012718310    4.57941004278516    3.29003579441444
C         1.96106175972656    2.20897111874359    4.67482549372367
H         2.09641842601340    1.14766956570622    4.86753059808703
H         2.70409623942814    2.78233599049801    5.22038387012108
H         0.97224329813792    2.48697083408668    5.03214820199112
B         2.27819999999928   -1.33089999999998    0.17409999999999
O         3.07636942492738   -2.33351626889498    0.68435242184589
C         4.37125773642488   -2.30380054774464    0.06704900576511
C         5.31370311407864   -1.62519845744553    1.06668049904050
H         4.90230248163166   -0.65636347010642    1.33501775801123
H         5.35611073482425   -2.23327267181155    1.96645014907596
H         6.31593003619830   -1.52080451751957    0.66337617628958
C         4.84669054237240   -3.73306970783368   -0.19077288295724
H         4.96627114291953   -4.24012049228357    0.76296404785254
H         5.80322605693453   -3.72083036995127   -0.70544615395758
H         4.12577016875986   -4.29030156721580   -0.77937193784869
C         4.12077560101179   -1.44374985220389   -1.22087062440832
O         2.89042733537144   -0.76568894479106   -0.91816346768980
C         5.20426848487124   -0.40970020338605   -1.52087557095937
H         6.16667334569672   -0.89774396643953   -1.64654883286918
H         4.95402606624474    0.11383290858804   -2.44001786812420
H         5.26266019669764    0.32023017487555   -0.72118709281378
C         3.87225343967904   -2.28987996412985   -2.47659516341786
H         3.07240131275267   -3.00284158880106   -2.29681211425850
H         3.55771586055522   -1.63101679302346   -3.28232578542265
H         4.77372868281277   -2.81334083413404   -2.77996822596032
H        -3.31079685654943   -3.65280485991778   -2.91134524136955
H        -5.00804946064906    1.85927191057845    0.88742379243738
C         0.23590000000128   -1.68139999999629    2.96029999999921
C        -0.95979845829921   -2.05467802004047    3.50987844796156
C         1.21220171052839   -1.57511092274467    3.97771516303307
S        -0.95124609180047   -2.17881896457926    5.25082415017925
Cl       -2.41043648498874   -2.43647481260166    2.68758435196208
C         0.75132929204266   -1.79575631916289    5.25283726700858
H         2.23378757644577   -1.34128582181977    3.73942665919215
C         1.44440308106987   -1.76510156581397    6.52752681729560
O         0.84239718454476   -1.83189385813102    7.58854542393958
C         2.95549446745677   -1.70156003124937    6.47131720232680
C         3.51531011850907   -3.07738975419544    6.09950430944417
H         3.31859018811008   -1.41023824385545    7.45799155034602
H         3.27213157318691   -0.96282792353734    5.73627687827530
H         3.17652108665993   -3.82527813337123    6.81317213046063
H         4.60154421378067   -3.04945833469797    6.11530456698006
H         3.18247280763263   -3.36824819429027    5.10663916858697
