  100
 energy: -147.745465552631 gnorm: 0.000215148264 xtb: 6.4.1 (1a32961)
N        -0.91306118727624   -1.95916956463424   -0.44910037927984
C        -2.13130238469099   -1.41634791480560   -0.63899485886930
C        -2.94210523093911   -1.81910686659830   -1.70612454669583
C        -2.49992513262218   -2.79539338782385   -2.57248771479389
C        -1.24459656265048   -3.35772281000734   -2.35690058201405
C        -0.49691196070912   -2.90182644657271   -1.29136786790592
H         0.48424163916510   -3.30618770645503   -1.08706121117315
H        -0.86016363090883   -4.12726159528073   -3.00628204379671
H        -3.90471227258279   -1.36236296506486   -1.86651835109210
C        -2.53448505467929   -0.39018326088076    0.31597952922211
N        -1.59039897254060    0.02969858125189    1.18413484029852
C        -1.91393398535634    0.96111166589483    2.07727860685842
C        -3.17023456309735    1.52632879983750    2.16853470501220
C        -4.15560394081710    1.10235792366980    1.28127749572923
C        -3.83013503927915    0.13849234489011    0.35080842556132
H        -4.58241443061689   -0.21212652851116   -0.33588946397432
H        -3.37704320864803    2.27396939011622    2.91714220341321
H        -1.11566013133965    1.26557547414394    2.73640724186107
Ir        0.42149999999996   -0.81650000000011    0.91329999999961
B         0.45450715041644    0.63107465382983   -0.58967646611059
O        -0.27229617267322    0.44521019547310   -1.75345870981245
C        -0.32756904442852    1.66890897859579   -2.49448109518273
C        -0.20763958883136    1.37430331103686   -3.98731492338407
H         0.66071457924453    0.75641149038233   -4.19021789380047
H        -0.13353818853051    2.30351625910057   -4.54627197723839
H        -1.09293185978821    0.83523391234439   -4.31611690836951
C        -1.69860867110967    2.29980374087067   -2.21048817938700
H        -1.83609688799071    3.21558643561488   -2.77766001747693
H        -2.47302220326853    1.58855453528885   -2.49109028146863
H        -1.80014709858883    2.50655610581536   -1.14696745085699
C         0.85390802381458    2.49013216696124   -1.88219291661362
O         1.01077443353073    1.88807869981562   -0.59029697969992
C         2.17200606237276    2.27147821911425   -2.63450942792836
H         2.38675273888483    1.20638177774427   -2.67402904772284
H         2.13321157685617    2.69277403879511   -3.63489853767495
H         2.97449936208961    2.75008417784197   -2.07810869731476
C         0.59095318067999    3.98735635206643   -1.73236274313439
H        -0.21988504091589    4.17592303957078   -1.03546507871303
H         1.48655125351185    4.47040233020917   -1.34862900860510
H         0.34729951194336    4.42121491538593   -2.69880537362668
B         1.56926333417005    0.63708031764810    1.88241918332118
O         2.93365314074890    0.73472172146875    1.96531047175980
C         3.31114824087667    2.01040890877117    2.50194654752208
C         4.46344636652346    1.83037308721284    3.48965193313717
H         4.20886589711536    1.11588433445702    4.26574901858299
H         5.33255663615591    1.45297544384677    2.95660560337871
H         4.71853341173967    2.78356232790380    3.94471148906144
C         3.78463183056227    2.85461618700365    1.31232682309493
H         4.05594754766337    3.86056925352473    1.61769667294355
H         4.65480004045899    2.37363249182865    0.87130656767255
H         2.99830379274476    2.87907960210000    0.56255611848260
C         1.97442437195076    2.53604285085033    3.13593011624031
O         0.98102529226904    1.69413273304407    2.53665137478261
C         1.64292186155905    3.99267879613078    2.81057477890209
H         1.51287704178648    4.12106759604416    1.74117756798784
H         0.71136779460729    4.26283177593887    3.30198611088515
H         2.43058702808232    4.64904123901359    3.16972988813906
C         1.89360677904105    2.33270900445758    4.65462612680142
H         2.05492729050500    1.28971005726786    4.91494355480860
H         2.62084126175770    2.95256845125907    5.16971393431096
H         0.89714480188408    2.60939366267182    4.99221779562571
B         2.27820000000007   -1.33090000000042    0.17409999999982
O         3.11017225334563   -2.28598509530296    0.71972105076806
C         4.39769104144784   -2.24583021736162    0.09233545208595
C         5.32946376826989   -1.50143327322165    1.05474305139329
H         4.89643888373708   -0.53222126077428    1.28444126551346
H         5.38946230008104   -2.06619308349596    1.98178265468402
H         6.32720579079205   -1.39100847714968    0.64132939486925
C         4.91152198210052   -3.67180966616869   -0.10716186620376
H         5.05163864581952   -4.13110298705362    0.86779177148390
H         5.86388854275054   -3.65631785188056   -0.62957979986722
H         4.20197396839626   -4.27492491903512   -0.66360289742837
C         4.11485081256791   -1.44911285620334   -1.23055200361576
O         2.85949836268781   -0.80756077677623   -0.95773919079429
C         5.15558719546452   -0.38385038738682   -1.57112104571069
H         6.13726493664899   -0.83579742061340   -1.68249455088175
H         4.88082043516913    0.09589601127593   -2.50711495858310
H         5.18469268054293    0.37580779344035   -0.79778652605968
C         3.90587839959932   -2.35423148118138   -2.45228425779176
H         3.13846889653704   -3.09477281447299   -2.24518145418200
H         3.56586400585587   -1.74187934186459   -3.28395928094545
H         4.83019669582556   -2.84978304898228   -2.73309958810799
H        -3.11377396189910   -3.11406124870383   -3.40111785886986
H        -5.15232518624930    1.51464643535436    1.32159725756985
C         0.23589999999876   -1.68140000000189    2.96029999999614
C        -0.92449202453806   -2.14909406110058    3.54085054920972
C         1.10706415946818   -1.42802502278644    4.04460096069030
O        -0.83030277289228   -2.14903669484090    4.89187860591859
C        -2.19398800029514   -2.65064840993131    2.95175145051891
C         0.41944664260365   -1.70439617941863    5.20825750813610
H         2.12196689447861   -1.09464017850689    3.97913976412816
H        -2.51591151968461   -3.54822478241257    3.47666739068466
H        -2.04166400904613   -2.87403076339044    1.90079046949094
H        -2.98388918290576   -1.90476310249051    3.04528689669382
C         0.82107315517408   -1.59247945112569    6.59310378775790
O         1.92835284179315   -1.18023059294003    6.91258719785878
C        -0.21546965006690   -2.00941888081171    7.60541990710388
H        -1.09565251780540   -1.37916066209007    7.49978152099849
H         0.18953672398845   -1.91624116764423    8.60899138631347
H        -0.51519908455445   -3.03736511490381    7.41620325822024
