  102
 energy: -147.338123247016 gnorm: 0.000302709867 xtb: 6.4.1 (1a32961)
N        -0.88961139575741   -1.99188297473991   -0.41656977095708
C        -2.15161967825503   -1.53842952923524   -0.55617559418961
C        -3.00906142743727   -2.08418327758761   -1.52125551275775
C        -2.56402822399750   -3.09440192737906   -2.34372968162653
C        -1.25678691847174   -3.55279084229768   -2.18774397308913
C        -0.47162086346227   -2.96991905358140   -1.21663609057961
H         0.54679020935343   -3.29536621238920   -1.05669532257651
H        -0.86629658072765   -4.34298439067912   -2.80830913520071
H        -4.01574811425230   -1.71540056633755   -1.63148057712510
C        -2.54938131677724   -0.46016011365915    0.33645617021116
N        -1.60045390136367    0.00521287369420    1.17833209221143
C        -1.92024664486250    0.98595351757157    2.01987820887750
C        -3.17246696145935    1.56035747619121    2.08168828876331
C        -4.16011592464191    1.09802697723935    1.21398998212747
C        -3.84025327286931    0.08540557669683    0.33721878788353
H        -4.59146313322111   -0.28656711789276   -0.33989472024498
H        -3.37781910272748    2.34447062862727    2.79245553454279
H        -1.11946667969227    1.31711805016419    2.66282656172653
Ir        0.42150000000013   -0.81649999999975    0.91330000000026
B         0.37824212464564    0.67117570505883   -0.55600080309744
O        -0.31317644133048    0.45323937183108   -1.73724242294664
C        -0.44434304048784    1.68048712833059   -2.46138760488298
C        -0.27489017806939    1.42294086262402   -3.95657510912208
H         0.63390912015299    0.86268349029390   -4.15006884878709
H        -0.24530281884934    2.36630942911115   -4.49596128739786
H        -1.11801775930190    0.83847357689040   -4.31730230155389
C        -1.86246714083142    2.20758912085359   -2.19636527919145
H        -2.05524245570475    3.11892889956893   -2.75484094464429
H        -2.57886696183817    1.44661325193380   -2.50036652702624
H        -1.99937867507661    2.39181648656223   -1.13252191339704
C         0.66209499068582    2.57553775760442   -1.81508524502624
O         0.83462431196554    1.97082328687340   -0.52727854908535
C         2.00857964819604    2.45936774792700   -2.54041417575369
H         2.29735646085131    1.41207734285369   -2.58910965487583
H         1.96311398717976    2.89081906791559   -3.53631251105193
H         2.76314869007197    2.98447119776865   -1.95928118397067
C         0.29093588744754    4.04881058032001   -1.65741556365935
H        -0.55049861320406    4.17186387270886   -0.98251176296033
H         1.13957964412095    4.58792996847322   -1.24310601609911
H         0.04440361289152    4.47604844590833   -2.62624473041736
B         1.55451527591902    0.63842128281291    1.89467962832266
O         2.92360595862711    0.78288665458551    1.90967138068329
C         3.28156013044234    2.04380257414484    2.49241149285148
C         4.53041962565288    1.87983435010399    3.35765183999865
H         4.40518051617631    1.07534867442198    4.07460768167048
H         5.37647070398158    1.63604936768850    2.72018537427867
H         4.74447381081020    2.80678031466448    3.88298542688593
C         3.58470391249735    2.99332036525489    1.32711571696996
H         3.85071142879480    3.98600422410236    1.67824577563138
H         4.41459198537531    2.58589006051929    0.75394469670586
H         2.71687699021227    3.03592568325564    0.67411498581108
C         1.98448773169801    2.44116557096768    3.27567491647974
O         0.97740469305432    1.64058553635245    2.64475854882788
C         1.59634087967703    3.91523080563118    3.17212698408131
H         1.37763431875921    4.18151380435608    2.14350197659004
H         0.70269203892833    4.08964455712122    3.76642287533507
H         2.39805408842464    4.54282482332698    3.55220184442878
C         2.02550283536241    2.03255551614864    4.75401092661098
H         2.24592329352313    0.97218533745384    4.83740068867384
H         2.76239017605447    2.61298615868426    5.30071721709306
H         1.04399101945075    2.20491437455597    5.18936781625202
B         2.27820000000129   -1.33090000000154    0.17410000000038
O         3.13794218776491   -2.27957882744091    0.68826529132730
C         4.41302914664429   -2.20389843730683    0.03925129752915
C         5.34852392394165   -1.46631555974631    1.00363697594276
H         4.90149027109763   -0.51101034821516    1.26349256069696
H         5.43594834162392   -2.05417460881775    1.91391623398069
H         6.33618422325089   -1.32700366473415    0.57508871651331
C         4.94710750514405   -3.61587461931999   -0.20293962497582
H         5.11177875796424   -4.09709025721760    0.75748523860563
H         5.88938405734059   -3.57129844021007   -0.74194363430512
H         4.23769542392223   -4.21688164220241   -0.76195580274588
C         4.09677934702555   -1.38197998171963   -1.26068739347136
O         2.83291587632882   -0.77525600133136   -0.95786585516706
C         5.10909803618200   -0.28434486427510   -1.58640753573426
H         6.09948307313511   -0.70948845145171   -1.72397609288175
H         4.80914081912054    0.21352202087210   -2.50517150524265
H         5.13046445429753    0.45514280462846   -0.79350263770877
C         3.89507574048327   -2.25994201119609   -2.50356809967261
H         3.14408394072453   -3.02071008994047   -2.30970477552534
H         3.53419526303190   -1.63312673119579   -3.31558960623879
H         4.82617661329959   -2.72945013986355   -2.80621185610118
H        -3.21377454319581   -3.51988820069056   -3.09354191156105
H        -5.15358163089611    1.52065212203867    1.22816864354962
C         0.23590000000463   -1.68139999999743    2.96029999999588
C        -1.03466931059301   -2.07363642674235    3.33716542366145
C         1.24082003778803   -1.55678273411455    3.93742592619055
C        -1.32867097981122   -2.24004074887127    4.69397144721222
H        -1.81226082175108   -2.26569626654265    2.60997654822624
C         0.98640297271748   -1.72810693123400    5.28090989674488
H         2.24409529328834   -1.33266166700925    3.60842219654682
C        -0.31079406945874   -2.05933982417367    5.66067490948428
C        -2.50135450809975   -2.60398153955388    5.41261604138450
H         1.77374578249957   -1.62766240450878    6.01404305996362
N        -0.84683360920363   -2.30111163255028    6.89535382193895
C        -2.16253726782878   -2.62752412484606    6.73314643970631
H        -3.46689294982446   -2.81563621745093    4.99572403506199
C        -0.13152563986988   -2.25695090598084    8.14012497982332
H        -2.77342857592916   -2.85872374947804    7.58574888552429
H         0.34033459614532   -1.28120924006630    8.27188891476918
H         0.64462547042784   -3.02636107320986    8.16385943345295
H        -0.82626228709052   -2.42987744619458    8.95958014629080
