  110
 energy: -159.036950397399 gnorm: 0.000280199739 xtb: 6.4.1 (1a32961)
N        -0.92554161156035   -2.02736213126560   -0.36150370448218
C        -2.18886556897138   -1.58128167736951   -0.47744926131795
C        -3.09525399090718   -2.20656329390597   -1.34324866746406
C        -2.69024065688515   -3.28454237258163   -2.10010934187291
C        -1.37634621573015   -3.72799489034507   -1.97629207914607
C        -0.54445283715335   -3.06723209201982   -1.09594356265340
H         0.48193238621312   -3.37903318333028   -0.96546344643319
H        -1.01428392397647   -4.56683042642539   -2.54801790881625
H        -4.11020542561003   -1.85493128518279   -1.42392003676949
C        -2.54598881136366   -0.42540504274818    0.33707677773973
N        -1.59251111543716    0.04589305955866    1.16760798187836
C        -1.88052342465933    1.08812007059777    1.94293213242280
C        -3.10277130089587    1.72945118060889    1.93633721926250
C        -4.08793160453464    1.27201992168797    1.06608173555508
C        -3.80198365731246    0.18844221748621    0.26369895162525
H        -4.55142296139314   -0.17663830128771   -0.41825061831986
H        -3.28194796235434    2.56541397813655    2.59307929184860
H        -1.07993554622997    1.42181660598615    2.58507884820972
Ir        0.42150000000010   -0.81650000000003    0.91330000000016
B         0.36499232104385    0.62970980677723   -0.59403096003904
O        -0.34705471435123    0.36337974899937   -1.74947894416609
C        -0.45479837077968    1.54879489201589   -2.54484560217666
C        -0.29950918855292    1.19466288972624   -4.02155935758957
H         0.59592878618621    0.60377355852956   -4.18255379566116
H        -0.25303113648867    2.10037068100928   -4.62068518263271
H        -1.15700191361429    0.60651955187973   -4.33958193347797
C        -1.85862671302666    2.12357960342623   -2.30624073990205
H        -2.03206313790422    3.00336856111629   -2.91879593943697
H        -2.59378423740080    1.36276437065391   -2.56094788890318
H        -1.98592141450596    2.37627609045013   -1.25542036612470
C         0.67646997861063    2.45381911242738   -1.95755138113879
O         0.84555534112876    1.91921528012911   -0.63664822779515
C         2.01416715216940    2.26363225952445   -2.68277744382861
H         2.27976300531656    1.20916294236441   -2.67020812128307
H         1.96936489980115    2.63477939160763   -3.70251478040784
H         2.78410667016938    2.80775673250372   -2.14079397318549
C         0.34059127267066    3.94171064327672   -1.88302694899566
H        -0.49702857569449    4.12383516369515   -1.21688695153714
H         1.20243612393623    4.48353587933185   -1.50076366070479
H         0.10292114920415    4.31845545287061   -2.87463013980283
B         1.57460616851498    0.65948694056146    1.84464471828496
O         2.92995495662145    0.85929400845898    1.75434546738805
C         3.29261687328635    2.11918297282402    2.33603745819241
C         4.59501138275289    1.96934398420756    3.12176102988599
H         4.52737371990550    1.15995427822848    3.84072260305179
H         5.40165600742592    1.73909126931467    2.43083316585291
H         4.82930402914515    2.89663149778205    3.63750773346830
C         3.51074077126780    3.09115351555432    1.17014905385838
H         3.76284651958561    4.08715380070939    1.52141984309004
H         4.32631244413699    2.71609487085493    0.55572953236070
H         2.61372090552812    3.11548495645111    0.55706421738882
C         2.03602273387656    2.47429541154178    3.20401375182229
O         1.01792412240173    1.62746371617698    2.65387506556558
C         1.58113969529898    3.92998095887797    3.11033594489715
H         1.29025625975141    4.17526658278434    2.09437430645618
H         0.71865221544312    4.07392549211737    3.75659437345217
H         2.37683761651251    4.59462877368996    3.43563277898269
C         2.19351854687373    2.09111399578620    4.68123368850639
H         2.46999247202352    1.04425839621039    4.76806071041637
H         2.93739089021782    2.71317513862410    5.16932077690028
H         1.23679394196595    2.22589149149866    5.18073231923426
B         2.27819999999963   -1.33089999999879    0.17409999999834
O         3.22409456923985   -2.10131686048052    0.81516983347588
C         4.43867857155601   -2.13523102198493    0.05356322685828
C         5.40749145669280   -1.15293540319313    0.71966545426265
H         4.93377080764442   -0.17759911506729    0.77805465621950
H         5.59892101137813   -1.49193597501575    1.73462362127590
H         6.34855460974445   -1.09418229360402    0.18162278173712
C         5.03220731388946   -3.54309924241497    0.10313345962038
H         5.31651511231384   -3.76762351137408    1.12774103768001
H         5.91496893871229   -3.59809094938758   -0.52771114323142
H         4.31103877223819   -4.28837723209105   -0.21508277347609
C         3.96939784393999   -1.66262765626387   -1.36714621551382
O         2.71804310692300   -1.01380855187072   -1.09132694895556
C         4.90746060322295   -0.67491637760430   -2.05844984943258
H         5.89386935608174   -1.11382417534835   -2.17996389613539
H         4.50851423552911   -0.43283970391689   -3.04039502722702
H         4.98155273108826    0.24354902063251   -1.48653762352909
C         3.67434027259165   -2.82598519391568   -2.32391275734614
H         2.99088042450710   -3.53119966010969   -1.85918245851468
H         3.19329429861154   -2.42892883724031   -3.21437270757844
H         4.58853897509612   -3.33601327170928   -2.61196361299155
H        -3.37780198560625   -3.77335821132855   -2.77353496123590
H        -5.05317190540763    1.75306435710841    1.01982160498272
C         0.23589999999941   -1.68140000000093    2.96029999999887
N        -1.00076938374788   -2.03531054076334    3.26502526700414
C         1.22352140551263   -1.53063429570751    3.94262519372800
C        -1.36297070925185   -2.15971645092985    4.54309972765079
C         0.86173821645055   -1.65323167452461    5.26923551229495
H         2.23962978179539   -1.32948172407005    3.64338045633675
C        -0.45733285340217   -1.95374950124962    5.58080120120151
C        -2.75566847485948   -2.54253911163683    4.94831124275799
H         1.58873652355829   -1.52872287793912    6.05988108878470
H        -0.79340661962153   -2.05516297555704    6.60070319418432
O        -3.01965556899933   -2.57422359262667    6.15496468776341
N        -3.70137929175884   -2.85389727831469    4.04196367886830
C        -3.54620014598876   -2.86726367741937    2.60189082279540
C        -5.00482180273534   -3.26723178435720    4.54204310546797
C        -3.00230496491702   -4.20165131995752    2.09646596677658
H        -2.86184787816603   -2.07272470026529    2.31347453547640
H        -4.52897367544240   -2.67412766017753    2.16560999231242
C        -5.97591026473422   -2.09304734348481    4.63570040138193
H        -4.86126289537709   -3.69731729809975    5.53600768395417
H        -5.39877649040362   -4.03553517777174    3.87366434751926
H        -1.99756664164653   -4.35469407530562    2.47999574302392
H        -2.96111965814102   -4.19163026103183    1.01093213564783
H        -3.63238135912521   -5.02757523309391    2.41834632794167
H        -5.58141050373900   -1.34490188943132    5.31872117764096
H        -6.93525260116773   -2.43809717037156    5.01121240716805
H        -6.12356361898222   -1.63383796831210    3.66101428475133
