  106
 energy: -152.636686442908 gnorm: 0.000612068280 xtb: 6.4.1 (1a32961)
N        -0.93762845052312   -2.05646164915384   -0.42724911487575
C        -2.14935930875401   -1.52991111699518   -0.68827481931679
C        -3.01024179525992   -2.12931820901699   -1.61634449588388
C        -2.61256773212863   -3.26764555636551   -2.28318357689276
C        -1.35022053585414   -3.78977435007167   -2.01466672093579
C        -0.55865776040696   -3.14787284502871   -1.08296664175367
H         0.42815680738549   -3.51275611432302   -0.83849558083653
H        -0.99818394969147   -4.67793380000197   -2.51384989122767
H        -3.98617706564729   -1.71448960490406   -1.80852446355270
C        -2.50244298334467   -0.32452536168169    0.05037126748816
N        -1.62376763337076    0.08438417044200    0.99127947500007
C        -1.92141941794187    1.16851298480584    1.70565153002541
C        -3.06737165954096    1.91457016267039    1.52293965363196
C        -3.96549819208795    1.52466681374541    0.53261416219660
C        -3.67605737353411    0.39622908594247   -0.20408767403386
H        -4.35563526454442    0.08103970307636   -0.97906699979746
H        -3.25781654721952    2.77956123653256    2.13773478213686
H        -1.19369421768760    1.44007522383074    2.45421348680487
Ir        0.42149999999980   -0.81650000000001    0.91330000000015
B         0.45056241492550    0.49889492007424   -0.70363073309084
O         0.24345601278913    0.01902260738185   -1.98763756551876
C        -0.01983158204419    1.10356608787256   -2.88524606351803
C         0.66496791004396    0.84249317372219   -4.22505611686077
H         1.72166506113683    0.63813052030191   -4.09035622175447
H         0.53994536950404    1.70002702266033   -4.88140803644859
H         0.20707347888971   -0.02651010256119   -4.69216702676392
C        -1.53854670674558    1.15497104035527   -3.10754352969522
H        -1.80147334560539    1.91846840578398   -3.83388025877411
H        -1.87054473164167    0.18543081842755   -3.47407702028529
H        -2.04986461380876    1.35250220670490   -2.16797172818797
C         0.51443969388076    2.33894454702234   -2.08915315706027
O         0.47189987874484    1.87758907856387   -0.73108599079591
C         1.97915438805798    2.65262459269954   -2.41708892866817
H         2.58670377476859    1.77371801518428   -2.21685835110663
H         2.09176650351243    2.96699755195237   -3.45064844447686
H         2.32304956973703    3.45136257508928   -1.76545104568005
C        -0.31895472889462    3.61112067838904   -2.23235360429028
H        -1.32290555891083    3.47216679238135   -1.84321582946253
H         0.15426400498480    4.41105531585556   -1.66806183703098
H        -0.37261630529398    3.90398020858583   -3.27776157608892
B         1.47562232728120    0.72319071534554    1.86993151375582
O         2.72401661249464    1.22363088592846    1.63856092483082
C         2.90157670062842    2.48314229432308    2.29354323578983
C         4.27961365355838    2.52702482842287    2.95401788850044
H         4.39392971240761    1.72453442781960    3.67294812353247
H         5.03523110892350    2.40181416843007    2.18353039990219
H         4.42998431919981    3.48426801942170    3.44628101437053
C         2.84441900684584    3.55579376946708    1.19857835671532
H         2.93237405784564    4.55669497066292    1.61084054062883
H         3.66717146077434    3.38011077319586    0.51019912606359
H         1.91565641600005    3.45041701898869    0.64522726892336
C         1.68709769456483    2.54612313595833    3.28913596877034
O         0.83911766689491    1.48729884754682    2.83121375154968
C         0.89814170760660    3.85717275809810    3.25313307463110
H         0.47850502369498    4.02509951767786    2.26676460228797
H         0.07981240594480    3.79545523385700    3.96663231287578
H         1.53808761858067    4.69127000695223    3.52707819283833
C         2.06520196082033    2.24107881032294    4.74341533130482
H         2.55807899133280    1.27600535147672    4.80908592753133
H         2.71158603069643    3.01410104565640    5.14797052507382
H         1.15589369152525    2.19131086665175    5.33815245723482
B         2.27820000000029   -1.33090000000145    0.17409999999909
O         2.41943208051446   -2.67038225884790   -0.17319173506400
C         3.69317399630577   -2.91362646101700   -0.77252111230545
C         4.55679559764109   -3.61751456212611    0.28117057367684
H         4.62025806828885   -2.99509893869673    1.16793346394559
H         4.07116042876338   -4.54950655185755    0.56066426294565
H         5.54903290470651   -3.83542621055975   -0.10156823864399
C         3.51642754388280   -3.84139708630115   -1.97577379421146
H         3.17475053153289   -4.81134700154199   -1.62273491048345
H         4.46213313447846   -3.97240063123857   -2.49413612113175
H         2.77418221650595   -3.44969068113728   -2.66351918701489
C         4.18680498169309   -1.46498549016844   -1.11277392916677
O         3.36452865083866   -0.63287064190870   -0.27938085572948
C         5.66248148651679   -1.20450703160953   -0.81856566006950
H         6.28175592480186   -1.87500105749925   -1.40867200094399
H         5.90062493669319   -0.17855717557846   -1.08526551500704
H         5.87953706500543   -1.33947367051916    0.23480068605248
C         3.88612601425424   -1.06751681898389   -2.56452357078133
H         2.81903695057244   -1.16235158622277   -2.75121589787629
H         4.16554580612263   -0.02560039478668   -2.70339072153036
H         4.44626620042893   -1.67706265945333   -3.26723539411903
H        -3.26898556980119   -3.74250336253312   -2.99707984418786
H        -4.86663860360594    2.08923437241275    0.34497311445776
C         0.23590000000009   -1.68140000000071    2.96030000000088
C        -0.97974408562575   -2.03192513824334    3.51423944600125
C         1.34058307966603   -1.50982408849754    3.84227069432502
C        -1.15258909929993   -2.00793998812023    4.91651272449981
C        -2.16849796224631   -2.46180151014052    2.70404718223277
N         2.56700476965707   -1.38686417568031    3.30192763595410
C         1.16238594254504   -1.50625212071748    5.25319216683945
C        -0.12805896982142   -1.72441768355882    5.77171086400171
H        -2.13619143431384   -2.22486296013680    5.31200336545210
H        -2.65355708485048   -3.31387991890445    3.17972386294165
H        -1.86796717394976   -2.74457034029225    1.70129745703629
H        -2.90158590259688   -1.65777252328453    2.63691715477902
C         3.61593710658567   -1.21702317143339    4.06303813817765
C         2.30210731534452   -1.31006175243775    6.05971422603208
H        -0.28213207306823   -1.69562727305860    6.84131978478892
C         4.93841294990244   -1.10189902300726    3.36953022259112
C         3.52700169780019   -1.15466154012908    5.47205157357239
H         2.19055293951103   -1.29051650857206    7.13594184534295
H         4.76471513551379   -0.70493092024185    2.37248806642280
H         5.39953631574966   -2.08655757114292    3.29050181535165
H         5.61645511486775   -0.45568435795813    3.92214518476700
H         4.41757807907440   -0.99903728255428    6.06328939822774
