  106
 energy: -152.644768135248 gnorm: 0.000420029183 xtb: 6.4.1 (1a32961)
N        -0.88092236331025   -1.87771031746630   -0.54994350000455
C        -2.09449098895777   -1.32004459967048   -0.73480637371830
C        -2.89480357471369   -1.68448709875054   -1.82422321083407
C        -2.44630608688976   -2.62926805924422   -2.72057834551224
C        -1.19307730955506   -3.20107431916960   -2.51424119780777
C        -0.45824175289845   -2.78854583290408   -1.42316148843271
H         0.51901845845804   -3.20455627600125   -1.22244037731148
H        -0.80287824694403   -3.94626363836795   -3.18821781101420
H        -3.85682572676515   -1.22366324803571   -1.97634454154210
C        -2.50138317563222   -0.32142636367766    0.24449771007083
N        -1.57607884593280    0.03883437001718    1.16154014610707
C        -1.90832740041332    0.94522920857118    2.07887356229585
C        -3.14979654356290    1.54246049157050    2.14771383725001
C        -4.11341431413523    1.18401912806611    1.20808549182473
C        -3.78060261881852    0.24819417523229    0.25305160569816
H        -4.51636569614954   -0.05080702840040   -0.47491058860379
H        -3.36462283982897    2.26222983832577    2.92088451539062
H        -1.12954374966153    1.19954320359802    2.78111921508380
Ir        0.42150000000031   -0.81650000000007    0.91329999999917
B         0.44570669321527    0.73630795077894   -0.50412251541032
O        -0.34308108957220    0.66441838245675   -1.64052280764087
C        -0.41477712961204    1.94907118105449   -2.26827619440162
C        -0.39368073462577    1.78685252386932   -3.78584101567109
H         0.45017412762498    1.18151848672561   -4.09956426790303
H        -0.34156427604657    2.76181121888638   -4.26364845828545
H        -1.30646892314496    1.28807399891253   -4.10319289020709
C        -1.75071668730318    2.57903951213997   -1.84744801859222
H        -1.89685198729819    3.54462081528059   -2.32232036305345
H        -2.55835869429462    1.91230030953889   -2.14310405047053
H        -1.78678704094723    2.69190520464466   -0.76559592976696
C         0.81907134994475    2.69333143680859   -1.66183263651723
O         1.04084164935798    1.97502624668961   -0.44063759559002
C         2.08406471184913    2.52652519613434   -2.51230569834216
H         2.27479275317084    1.46728196260270   -2.66677059145605
H         1.99099815375559    3.04025185912264   -3.46479034600229
H         2.92904826562974    2.94051573025624   -1.96675071203787
C         0.59658364875899    4.17479576552729   -1.36208090121265
H        -0.16762986774437    4.31115316278957   -0.60293682122932
H         1.52344167784865    4.60721633744510   -0.99229588989916
H         0.30514765797192    4.69900278742924   -2.26870288312050
B         1.55538101279223    0.63594347252634    1.90169383583964
O         2.92146714224357    0.75068103172855    1.95079594500151
C         3.30177004222121    1.98808653994880    2.56934432536668
C         4.47027084777081    1.74131135046197    3.52369997480131
H         4.22867813567858    0.96862192542647    4.24573590885383
H         5.33199462732774    1.40908023179881    2.95032749433387
H         4.72848286680869    2.65865568122504    4.04556151993636
C         3.75747956719337    2.91920377798997    1.43965876367480
H         4.02697149669449    3.90164442442773    1.81529287448116
H         4.62498784095809    2.47721036902127    0.95447461475517
H         2.96249630740372    2.99471433151213    0.70308595637853
C         1.97297181889393    2.45910128906902    3.26123670117487
O         0.97395447554765    1.64922697076579    2.62766003566174
C         1.62695915980725    3.93202020052824    3.04473209575238
H         1.48606697192274    4.13843357625277    1.98917947271147
H         0.69802759604284    4.15733129334933    3.56288134657005
H         2.41318365823853    4.56682449041470    3.44377903142607
C         1.92180303098697    2.14920525350616    4.76301267691971
H         2.08191931877921    1.08870781408426    4.93528576514246
H         2.66041286963297    2.72918961812822    5.30753036885138
H         0.93215956254822    2.39925165017449    5.13879802152360
B         2.27819999999627   -1.33090000000098    0.17410000000063
O         3.19971096513286   -2.18444772637554    0.73893542239183
C         4.43575466813364   -2.13982891419019    0.01419881474166
C         5.39991610513795   -1.28655465072022    0.84515114858048
H         4.93793672610427   -0.32300167576526    1.03897895311523
H         5.55858387073836   -1.77940679253944    1.80110973782001
H         6.35621798176508   -1.16307100498304    0.34639184226472
C         4.99915098547860   -3.55519875843157   -0.11653994981380
H         5.22947869954590   -3.93285547092285    0.87614816113883
H         5.90962040530513   -3.54150559167362   -0.70916202622310
H         4.27955551120563   -4.22734705145371   -0.57179225725544
C         4.02457194653687   -1.46243028218027   -1.34211360338833
O         2.75277615092304   -0.87293085439938   -1.03513839580336
C         4.97396560065070   -0.36674601001249   -1.82579757781600
H         5.97330769361198   -0.76693434670036   -1.97237578304993
H         4.61024276366772    0.02409632562019   -2.77284053214114
H         5.00346019747461    0.45003917323555   -1.11283883311654
C         3.79965947570787   -2.46549679352235   -2.48178765721756
H         3.09152542263893   -3.23089258008720   -2.17698215384326
H         3.37650548469503   -1.93609444798150   -3.33206779311768
H         4.73414554476771   -2.92864110733978   -2.78340360517337
H        -3.05294271158205   -2.91687493890146   -3.56575430382939
H        -5.09885896937369    1.62389514139088    1.22926446913016
C         0.23590000000526   -1.68139999999613    2.96029999999698
C        -0.97858601320561   -2.23325370179468    3.45766546443678
C         1.24569351103175   -1.49650552523088    3.88302873544227
N        -1.21166514227876   -2.41373506947848    4.73619920532037
C        -2.07593265004963   -2.71670581669311    2.55608573872388
C         1.02764229237576   -1.70287818377262    5.25865760844681
H         2.23395770981757   -1.21483646360820    3.54894706519751
C        -0.26267727390990   -2.14075568719486    5.65174599826918
H        -2.55831166289465   -3.57626906722010    3.01570529807333
H        -1.68189434528468   -2.98793310529197    1.58134386247431
H        -2.83183171419310   -1.94356949318112    2.42973346345344
C         2.01586681006209   -1.53428651065358    6.25084158834602
C        -0.53237621726849   -2.37075551224911    7.01583812849499
C         1.72710863742851   -1.77341787157964    7.56351357621959
H         3.00470384539442   -1.21710080334012    5.94920670738604
C         0.44143983689009   -2.19613748530053    7.96518037538781
H        -1.52352816213122   -2.70356415745451    7.28505201822772
H         2.49022906497053   -1.64588839606236    8.31832225201875
C         0.18248927715562   -2.46186019572919    9.41748228289807
H         0.84190532700921   -3.25124899396916    9.77676783894543
H        -0.84763544188096   -2.76771537688018    9.57796921764435
H         0.38120618280086   -1.56839491032760   10.00782103581791
