  106
 energy: -165.329698454676 gnorm: 0.000416804690 xtb: 6.4.1 (1a32961)
N        -0.87296634366491   -1.90010594652773   -0.55502998856919
C        -2.08244532452912   -1.34292116422700   -0.75580532804667
C        -2.86858424196732   -1.70767935914166   -1.85462422600201
C        -2.40865801507635   -2.65572579088345   -2.74290791024840
C        -1.15995228729498   -3.22827368858147   -2.51910039502243
C        -0.43820173249382   -2.81260666912422   -1.41950470929375
H         0.53653731847177   -3.22760740914415   -1.20592187862747
H        -0.76167833573976   -3.97552711801502   -3.18588227251384
H        -3.82697384133425   -1.24520929477303   -2.02245108585697
C        -2.50348874548449   -0.34055743838179    0.21709980187919
N        -1.58884906756315    0.03451472378588    1.13706647305807
C        -1.93247955264544    0.94770687742063    2.04270815030080
C        -3.17947577741562    1.53672998664236    2.09710723538837
C        -4.13390778237878    1.15963070115973    1.15681931555377
C        -3.78763057678729    0.21624183472406    0.21296210572387
H        -4.51731644013660   -0.09756468813287   -0.51453469233335
H        -3.40428504602620    2.26384480074159    2.86036798897864
H        -1.15941602502469    1.21591268333338    2.74606876261466
Ir        0.42150000000033   -0.81650000000006    0.91329999999996
B         0.44608181943887    0.72092875579551   -0.51845221905213
O        -0.33050035431804    0.63229235531723   -1.66047891337395
C        -0.39993254423863    1.90992304858776   -2.30403962997913
C        -0.36023527076231    1.73007410772311   -3.81907490220837
H         0.48843479214305    1.12276124292721   -4.11536538791473
H        -0.30378227994733    2.69946767504605   -4.30758058183511
H        -1.26825016531006    1.22632798416478   -4.14200056129019
C        -1.74306081074474    2.53871837525026   -1.90548419258578
H        -1.88623887984537    3.49937863443934   -2.39090854768419
H        -2.54478730079673    1.86693708867073   -2.20549488652979
H        -1.79265852361066    2.66166370544723   -0.82529794306937
C         0.82420377777747    2.66579264769714   -1.69195333278991
O         1.03470358427388    1.96167367568118   -0.45993119151075
C         2.09948738472013    2.49325680126849   -2.52538475211926
H         2.29629616046258    1.43289505391366   -2.66336537913121
H         2.01516351937302    2.99354486074648   -3.48568210274840
H         2.93637504934848    2.91877970123363   -1.97634622887547
C         0.59288092482398    4.14949563189995   -1.41167233552575
H        -0.18138996608423    4.29232342087646   -0.66399694756475
H         1.51345699867347    4.58985834731173   -1.03568477776311
H         0.31111236295011    4.66196951943991   -2.32793943573896
B         1.54181670834890    0.64710468411611    1.89702934121907
O         2.90473808007748    0.77240137741353    1.95427774612775
C         3.26887092775003    2.01830902006389    2.56730588543716
C         4.43756585236264    1.79208262541137    3.52603939945473
H         4.20466610774639    1.02188845126532    4.25335683302423
H         5.30501991962867    1.46766759586737    2.95703819036108
H         4.68251418529382    2.71623337296393    4.04214341856523
C         3.71537008734888    2.94775395386348    1.43287503043214
H         3.97163863044984    3.93573356511493    1.80287757616416
H         4.58964811924511    2.51379314476439    0.95279273770053
H         2.92123652401089    3.00879015763569    0.69408322751657
C         1.93229778490837    2.47694762426999    3.25275650077762
O         0.94451630463979    1.65355165747044    2.61731679014193
C         1.57049992060592    3.94486109835435    3.03051002748523
H         1.43246139204237    4.14695967365732    1.97377761456150
H         0.63685538962407    4.16117145859229    3.54391440697321
H         2.34733773567018    4.58978629519451    3.43152517695985
C         1.87858709361036    2.16975070435788    4.75498592925035
H         2.05276057296407    1.11203001204473    4.93054259958941
H         2.60675718776500    2.76103715867218    5.30122392269924
H         0.88441556640364    2.40826167093453    5.12616985738834
B         2.27819999999923   -1.33090000000086    0.17410000000064
O         3.20356324489060   -2.15937689248340    0.76563405834054
C         4.44340800523431   -2.12212903471117    0.04603338634585
C         5.39922605034269   -1.25007997198915    0.86689381916408
H         4.93023173204762   -0.28730581731839    1.04701216198666
H         5.56083550064192   -1.72872195157428    1.82940803259335
H         6.35537440054268   -1.12634719592940    0.36815668111814
C         5.01273128188054   -3.53755077203755   -0.05469361032109
H         5.23257643663109   -3.89795707490174    0.94678919323437
H         5.93019662990206   -3.53080191322867   -0.63638638787274
H         4.30112059921658   -4.21998330093667   -0.50714830993908
C         4.03613246855684   -1.47195762270032   -1.32558433889274
O         2.75154906428154   -0.89658389084344   -1.04188710937725
C         4.97256332631587   -0.36740364440566   -1.81418229037768
H         5.97972080024547   -0.75266628666163   -1.94558198208757
H         4.61256300756625    0.00488486759872   -2.77003882252748
H         4.98139415820780    0.45893043947703   -1.11177289923826
C         3.83987876500620   -2.49412637487212   -2.45303986047928
H         3.13760838186074   -3.26456846511914   -2.14764010596715
H         3.42286320091653   -1.98260345696344   -3.31711296088345
H         4.78451470750247   -2.94933402914589   -2.73429503989658
H        -3.00447813448890   -2.94418537736543   -3.59539171532669
H        -5.12328947781633    1.59060886881065    1.16749332462704
C         0.23590000000072   -1.68140000000237    2.96030000000079
C        -0.98192476030190   -2.23572626877780    3.45857354796710
C         1.24655008168591   -1.50064813717676    3.88491695311911
N        -1.21870542789515   -2.40991505927036    4.73602728181315
C        -2.07378613560694   -2.71933614635922    2.55505445057301
C         1.02660408459219   -1.70694402731987    5.26046954351791
H         2.23380549791105   -1.21832805290657    3.55058229811077
C        -0.27086724911086   -2.13563209879753    5.65058224933375
H        -2.56232279952105   -3.57431002056023    3.01599504645985
H        -1.67630900301542   -2.99267046514497    1.58259841718141
H        -2.82483957333254   -1.94258110486980    2.42460092733338
C         2.01893800180320   -1.53479647485843    6.24848409641519
C        -0.55081687324907   -2.35483369597926    7.01225941179227
C         1.73595173110719   -1.75714949100976    7.56589473636298
H         3.00818052786982   -1.22768928328710    5.94453579040546
C         0.44003691080258   -2.16462047938151    7.94368853421749
H        -1.53951903853784   -2.67940092029432    7.29470024907168
H         2.48854546017741   -1.62892611848520    8.32867887672342
C         0.18997425749307   -2.42826792290599    9.39428322516604
F        -1.10363258819843   -2.61425050564125    9.70398097155363
F         0.83383389521248   -3.53439897796652    9.84021896901681
F         0.62029258729584   -1.42801583228438   10.19441658163326
