   96
 energy: -144.206352234564 gnorm: 0.000173725195 xtb: 6.4.1 (1a32961)
N        -0.88792416732481   -2.03991348865175   -0.37467713318172
C        -2.18082553745412   -1.67685790249057   -0.42472722685187
C        -3.08601877681703   -2.35916486403782   -1.24734850874291
C        -2.64958533442405   -3.40809362809210   -2.02790965973678
C        -1.30516435662326   -3.76321160028170   -1.97410261967384
C        -0.47479851367393   -3.05013083812984   -1.13381227702123
H         0.57544279527872   -3.29248628539928   -1.05373259840082
H        -0.91797077330499   -4.57560803435009   -2.56711019364600
H        -4.12479931514809   -2.07571841019626   -1.27621935972669
C        -2.57338691435150   -0.54696384379304    0.41297412980475
N        -1.61537231894019   -0.00597499762555    1.18977876638542
C        -1.93030115888787    1.02104323469273    1.97259860142964
C        -3.19511649251609    1.57207387971869    2.03651719815027
C        -4.19212708146965    1.03605582249526    1.22862403622739
C        -3.87295561452007   -0.02666446953414    0.41018449876447
H        -4.63190763478236   -0.44844627218734   -0.22710041465915
H        -3.39633868700766    2.39731600671230    2.70037520945149
H        -1.11811435258682    1.41689873476429    2.56352978319499
Ir        0.42149999999998   -0.81649999999994    0.91330000000032
B         0.37104266266856    0.64435135624844   -0.57205877069093
O        -0.32227949808217    0.40262965828736   -1.74387244616722
C        -0.43296345461120    1.61213284507112   -2.50365695994915
C        -0.25553109596468    1.30789046274717   -3.98884077447471
H         0.64871594645387    0.73275738912386   -4.15752604014374
H        -0.21221203068975    2.23372246085458   -4.55645287557897
H        -1.10191306241332    0.72131369232512   -4.33784324453886
C        -1.84577946411515    2.16326500253488   -2.26231400749895
H        -2.02218921715320    3.06237420937918   -2.84516209055421
H        -2.56990655232896    1.40449721805611   -2.55238683106528
H        -1.98732948109305    2.37610095092455   -1.20448924699168
C         0.68171203483911    2.51041047672079   -1.87444990084052
O         0.84042953836197    1.93648497227644   -0.56853349638836
C         2.03138625056100    2.35678118209028   -2.58589918252969
H         2.30739793180418    1.30515322175980   -2.60229417856665
H         1.99832311833411    2.76070566895129   -3.59352781491336
H         2.78759799998011    2.88887036717012   -2.01364932228120
C         0.32889570931364    3.99140702596254   -1.75682725944119
H        -0.51889498879362    4.14297618525955   -1.09611167557466
H         1.18003033480290    4.52855088160545   -1.34554190900421
H         0.10022006242162    4.39757319045210   -2.73880363175196
B         1.55283616289972    0.62858013428617    1.91584798009073
O         2.91680307533100    0.78166741057955    1.93010183471063
C         3.26688863455975    2.04201950930812    2.52343104410061
C         4.51819185011870    1.88078534852438    3.38458679318881
H         4.39701386599559    1.07893001469096    4.10521391068995
H         5.36197789067055    1.63641139350896    2.74458621819025
H         4.73260788155484    2.80944374807017    3.90645138090409
C         3.56053051839762    2.99885184229426    1.36168466209922
H         3.81516490172368    3.99271230779509    1.71696643194425
H         4.39617660181417    2.60210398954308    0.78976568104329
H         2.69422263900587    3.03449303643726    0.70601444169913
C         1.96871569851697    2.42437095077746    3.31313801552245
O         0.96690784488569    1.60954837620481    2.68616114030591
C         1.56056104070210    3.89273098649593    3.20510984282918
H         1.33302075393306    4.15158830508475    2.17650604729870
H         0.66867060080106    4.05887321312808    3.80440487100156
H         2.35623468152967    4.53158312630637    3.57833636743786
C         2.01879532700525    2.02258402840227    4.79275981820034
H         2.25190131856276    0.96566249155501    4.88924999372918
H         2.75076751262728    2.61438374990191    5.33338882250828
H         1.03784274159343    2.18771946317921    5.23268237572226
B         2.27819999999935   -1.33090000000042    0.17410000000001
O         3.12464638006475   -2.26101108177750    0.73841779120038
C         4.40966251057783   -2.21951557274172    0.10207845721948
C         5.34186059405667   -1.46289463484969    1.05425982799786
H         4.90125622196000   -0.49713886312373    1.28398960356535
H         5.41667372600283   -2.02539045698170    1.98152489820561
H         6.33435585141317   -1.34420178572474    0.63119774453175
C         4.92810731562524   -3.64533818511714   -0.08647481412769
H         5.06952510326318   -4.09716973269851    0.89177122176189
H         5.88015342592723   -3.63109683742018   -0.60922351726159
H         4.22041661931141   -4.25512929195361   -0.63799884010395
C         4.11651000325992   -1.43672292388851   -1.22793900048725
O         2.84596239631793   -0.81898398484144   -0.96642829016269
C         5.13271376749506   -0.34727458423068   -1.56676788380754
H         6.12531347275536   -0.77482608046232   -1.67616680090357
H         4.84718923509579    0.12413652633532   -2.50365814799022
H         5.14051586187471    0.41352524172173   -0.79414801891495
C         3.93589891622377   -2.34974003280701   -2.44789876887155
H         3.18220215651661   -3.10587588282903   -2.24682427139404
H         3.59039496832253   -1.74654561247697   -3.28388086930801
H         4.87248146707171   -2.82698087670884   -2.71955450582779
H        -3.33775433149216   -3.94073813716886   -2.66635114807350
H        -5.19289774810254    1.44065073062799    1.23967778289137
C         0.23589999999891   -1.68140000000226    2.96029999999866
N        -1.02438247246070   -2.00322886235701    3.25385996150573
C         1.15966289529474   -1.58457488523638    4.00955695034795
C        -1.36409678717610   -2.11430384622115    4.51933259584341
N         0.80340317994960   -1.70079555081817    5.27417621640739
H         2.20738360730361   -1.41181896846871    3.81100491623966
Cl       -3.02638527924033   -2.51617294137716    4.81952160438325
C        -0.47327064368044   -1.94618452095871    5.57519865335444
C        -0.85788152964547   -2.05062522900603    7.01244993517485
H        -1.62565885390762   -1.31619443453049    7.24991498938647
H         0.01986409140470   -1.87865543075255    7.62736853658107
H        -1.26537447735604   -3.03842345397343    7.22154260423911
