  117
 energy: -179.832743172603 gnorm: 0.000609570542 xtb: 6.4.1 (1a32961)
N        -0.91858506676359   -2.16965252978812   -0.34642071324252
C        -2.20392611913601   -1.80205693675146   -0.46826827700693
C        -3.05080717048772   -2.43089303152110   -1.38884176937151
C        -2.56874724734371   -3.45727140051419   -2.17323849718177
C        -1.24047762235789   -3.83834575586907   -2.02307031067680
C        -0.46256263542906   -3.15984416276264   -1.10418455346978
H         0.57818357084622   -3.40939943932109   -0.96216233573973
H        -0.82082670106327   -4.63925603170047   -2.60956803434932
H        -4.07488215646839   -2.11493017457901   -1.50110167449874
C        -2.66473633727157   -0.72148031545273    0.40174107314732
N        -1.73033366039606   -0.10306832854213    1.14567157341912
C        -2.10757189802733    0.88127225342974    1.95269731970577
C        -3.41638953053975    1.30576073736909    2.08085296117858
C        -4.39619913031446    0.66777938450864    1.32852044941024
C        -4.01306409066141   -0.35097654552287    0.48164586513620
H        -4.76056712907689   -0.86243945117834   -0.10161068284811
H        -3.66556999888895    2.10408620210807    2.76100488863969
H        -1.31205128340413    1.34565859355398    2.51282102133487
Ir        0.42150000000007   -0.81649999999977    0.91330000000021
B         0.26439965348194    0.54867354776033   -0.64926783413088
O        -0.29679744356844    0.16664791048435   -1.86092459438159
C        -0.74594327811164    1.31517969896173   -2.58484052685867
C        -0.41516089956487    1.14753057223933   -4.06743840564175
H         0.64036756587512    0.94192258946210   -4.21308262514316
H        -0.68998118900808    2.04444921193523   -4.61631537667220
H        -0.98151607548032    0.30726228448800   -4.46260298453899
C        -2.27269285601135    1.37866290341752   -2.42649973675586
H        -2.69257573836759    2.20945161516975   -2.98572897409367
H        -2.69903367848911    0.44914081757952   -2.79927291603711
H        -2.54043406208486    1.47392649126104   -1.37665540936189
C        -0.00645069981702    2.49722280973332   -1.86633458947306
O         0.38994769575801    1.91636168576395   -0.62013358510075
C         1.26965304081662    2.93872390443945   -2.59403973034376
H         1.92835656759104    2.08696562405098   -2.73972064390310
H         1.03606828213403    3.39616210993277   -3.55098302737039
H         1.79162341200970    3.66431035479455   -1.97439338757468
C        -0.87273724508248    3.72807856092660   -1.59497598099681
H        -1.69261094419553    3.49005417856862   -0.92422977381674
H        -0.26229669678665    4.49178754858425   -1.11908026648699
H        -1.26694921559800    4.12558463932445   -2.52650256751582
B         1.39286506783666    0.74912112599204    1.89748097459217
O         2.72966160751270    0.98390972119743    2.10615438448389
C         2.92563523081232    2.36902856236195    2.41815969616567
C         4.05534703860232    2.54353110677071    3.42997542541769
H         3.91009339099825    1.90256222335208    4.29304484348367
H         4.99974563120420    2.27644884044507    2.96439275939849
H         4.10585222390412    3.58146016426296    3.74854176308812
C         3.30789349816813    3.04885703090150    1.09795769641212
H         3.50582608189648    4.10815535832106    1.23317996488585
H         4.20008544908772    2.56214033960210    0.71307986065691
H         2.50908268366624    2.89448425899886    0.37758488339704
C         1.51525538976245    2.80868199573834    2.93571783517475
O         0.65707411202985    1.80610860614103    2.38157191009234
C         1.05489194518832    4.18249283306030    2.45028715972743
H         0.91609395529788    4.17190981285197    1.37446582693635
H         0.10244496697988    4.42697369606482    2.91436865159739
H         1.78212359659970    4.94264611236622    2.72214769581363
C         1.38354647685287    2.73802509109032    4.46159651895281
H         1.70185587279446    1.76385105301799    4.82188123342824
H         1.97100525370576    3.51675403464485    4.93844269128950
H         0.33764937114044    2.87281497173749    4.72908128502069
B         2.27819999999997   -1.33089999999984    0.17410000000082
O         2.47782718391351   -2.58563681486781   -0.38928978998988
C         3.71595603788590   -2.64008641261366   -1.10644127461707
C         4.67943025874809   -3.52763485211996   -0.30855916862980
H         4.86312837003668   -3.10740892714199    0.67518524197297
H         4.22172141500332   -4.50505120802492   -0.17847275894766
H         5.61984095561276   -3.64611658286691   -0.83760209834422
C         3.46827159670405   -3.28631170143081   -2.47069359813698
H         3.18406732613003   -4.32489473601401   -2.32123189279225
H         4.37160167634303   -3.25519383875368   -3.07293775667236
H         2.66207923425586   -2.78525181619142   -2.99649960916798
C         4.15098214690249   -1.13285012523936   -1.15938133771202
O         3.34205271591280   -0.52285540767560   -0.14838827686176
C         5.62756257052852   -0.87654411783603   -0.86458915267505
H         6.24958374952980   -1.36797348597815   -1.60765369786098
H         5.81051333635834    0.19387596760237   -0.90525579319870
H         5.89622810690716   -1.22925670008644    0.12497471326330
C         3.77751005892843   -0.44703052456211   -2.48120166265878
H         2.70877866512148   -0.55000099614863   -2.65535286037388
H         4.00311537735622    0.61282472993270   -2.38915765260771
H         4.33641407540853   -0.85658292298970   -3.31708783446873
H        -3.21177077197939   -3.94895937027901   -2.88794785640993
H        -5.43362702552028    0.95681574717467    1.40601983820970
C         0.23590000000036   -1.68139999999994    2.96030000000015
C        -1.08951031967965   -1.93103452147590    3.26412799552880
C         1.12995167751423   -1.40726670449232    4.03004370766371
C        -1.60626263457717   -1.69356169567067    4.53901834669008
H        -1.76275505622202   -2.29957141110467    2.50312809934762
C         0.58172830799896   -1.00663562465581    5.27679024860710
N         2.49941237039349   -1.52905476914665    3.94031269923799
C        -0.79564028466377   -1.15577986634691    5.50494725532239
H        -2.65074691997587   -1.88618354898587    4.74019895115747
C         1.42426606936860   -0.46988387935082    6.29703176234522
B         3.37720750499199   -0.89297841836363    4.84486910130708
C         3.04427571749031   -2.42990106179799    2.94543412745634
H        -1.19808998881435   -0.86890635679207    6.46607056090144
C         2.75474708352693   -0.30379809249494    6.10432094421549
H         0.94180941982007   -0.17740312295614    7.22289057523064
C         4.93530486925282   -0.90191114504001    4.56895114178131
H         3.99607217901280   -2.81032445845823    3.31008985833008
H         3.19736172186636   -1.91595560022499    2.00026942228944
H         2.36823306128338   -3.26891137814642    2.78588064173435
H         3.33179181394225    0.16484840830291    6.89194798337467
C         5.87095679756360   -1.25137550162877    5.54277881044223
C         5.41998362349505   -0.50787135652522    3.31592077126431
C         7.23183687732899   -1.23426054057436    5.28831533418013
H         5.52878768768009   -1.55447279439993    6.52079613767749
C         6.77379396410446   -0.47273246905567    3.04801785456756
H         4.71554352049090   -0.21105587006467    2.55352742550229
C         7.68263809517898   -0.84656186871588    4.03403172625949
H         7.94057895622876   -1.51832965758471    6.05162196572679
H         7.14060958513155   -0.16253190982299    2.08051201454523
C         9.14112230050360   -0.80075320876231    3.71156598308349
F         9.93438064768319   -1.31919394052509    4.66597125671025
F         9.44994201658934   -1.46942543380958    2.57667274713739
F         9.59511319441139    0.46022948114172    3.50807393901576
