  117
 energy: -179.840875763656 gnorm: 0.000394230596 xtb: 6.4.1 (1a32961)
N        -0.88154622867203   -1.96160315047827   -0.46606375482139
C        -2.14228678579450   -1.50254865462356   -0.59340381423862
C        -2.99190467026600   -1.99958816214351   -1.59034318252069
C        -2.54132393244635   -2.97153511366394   -2.45552571228391
C        -1.23606324881419   -3.43707441180663   -2.31143064762864
C        -0.45712632482839   -2.89938088428851   -1.30906425473039
H         0.56173340868330   -3.22799417059391   -1.16225260649519
H        -0.84116417662154   -4.19786996296723   -2.96491853397479
H        -3.99592826404979   -1.62232821682861   -1.69449047476223
C        -2.54962109097616   -0.46639041017617    0.34537584610981
N        -1.60261554060613   -0.01722923464678    1.19690224826532
C        -1.93086584763921    0.92954582838493    2.07401037474918
C        -3.19085778259676    1.48363827107353    2.16315533637046
C        -4.17881738187051    1.03297201646084    1.29053043310834
C        -3.85020092562442    0.05419395431719    0.37873588321057
H        -4.60287067998071   -0.31078450044903   -0.30039167509580
H        -3.40076565052486    2.24362680644486    2.89836542127131
H        -1.13110509208410    1.25180847219459    2.72279509210006
Ir        0.42149999999940   -0.81649999999848    0.91330000000004
B         0.39176753589835    0.70905659109202   -0.52503728918048
O        -0.44807471833363    0.60773127439650   -1.62362317387916
C        -0.55390087680255    1.87690718571864   -2.27579973755624
C        -0.60148270716455    1.68271259872672   -3.78919862442570
H         0.22603273369196    1.06772478842973   -4.12743041754100
H        -0.56799084534883    2.64711143866974   -4.28998923905376
H        -1.52895605635054    1.18101586817006   -4.05565164390154
C        -1.87169302584123    2.51111634221297   -1.80606845055696
H        -2.04723999293350    3.46413286792479   -2.29630624602128
H        -2.68904647118590    1.83330492459496   -2.04529398311290
H        -1.85536796174696    2.64972692494250   -0.72666365838273
C         0.70314732049675    2.63856003604450   -1.74359007902448
O         0.98102643974981    1.95322638799640   -0.51581763825699
C         1.93056600959183    2.45087283726843   -2.64363435832413
H         2.11310950683265    1.38839656090066   -2.78579288436707
H         1.79923628848010    2.94556391468333   -3.60174067355451
H         2.79789448040877    2.87320655382296   -2.14121357671120
C         0.49065950134861    4.12719566609395   -1.47418988689579
H        -0.23831649284717    4.28329474300515   -0.68481455694894
H         1.43232052062798    4.57062542250403   -1.15901890086627
H         0.15624218790753    4.62596179243641   -2.38038862899794
B         1.53539940813168    0.64310486257900    1.90871065442275
O         2.89866891985597    0.79299985647931    1.92857828682906
C         3.25858106735637    2.02876873993609    2.56050266716015
C         4.48070993638594    1.81194636589604    3.45180854392036
H         4.31137398477234    1.00388062537212    4.15511660883158
H         5.33034072146254    1.54493983756752    2.82887285636703
H         4.71535787609945    2.72398199632971    3.99398271180262
C         3.61445591766935    3.00862951212791    1.43549153356259
H         3.86501737319937    3.99093523826680    1.82457853066078
H         4.47065781301122    2.61635622097409    0.89117064341895
H         2.77819857134858    3.07148296130831    0.74415726100911
C         1.94674701775022    2.42271303024192    3.32405743861630
O         0.94710246770198    1.63058532798498    2.66976591088934
C         1.56353967154153    3.89836386234943    3.22216840094850
H         1.37559798591504    4.17395763285532    2.18977839521213
H         0.65367308488669    4.06951073241984    3.79230602933894
H         2.35454482551922    4.52154390061694    3.63046488889114
C         1.95648953535743    2.00415956938079    4.80025223834843
H         2.15562184945590    0.93949300188530    4.88443514094650
H         2.69504065966706    2.56738710160334    5.36218153599708
H         0.97257465230916    2.19312718241345    5.22307087911559
B         2.27820000000058   -1.33089999998854    0.17410000000384
O         3.25202748174275   -2.07707950205988    0.79878183102708
C         4.45549308795786   -2.07720589386066    0.02100300329990
C         5.40579509858330   -1.07087111786098    0.67832905769031
H         4.90527634544327   -0.10969280218208    0.74991578050714
H         5.62048226037646   -1.41003685978823    1.68848995517648
H         6.33703333596811   -0.98189060398609    0.12732288190208
C         5.08711402275745   -3.46877176822875    0.06003617309186
H         5.38528310427435   -3.68911131720352    1.08154067403686
H         5.96576005465282   -3.49793421755894   -0.57836897105164
H         4.38345787346071   -4.23197260560506   -0.25515801125404
C         3.95661279068439   -1.61454781805432   -1.39361514695303
O         2.68739279854069   -1.01120260178625   -1.10326631182695
C         4.85068073845320   -0.58784749571001   -2.08736735221536
H         5.85181152791147   -0.98748804488178   -2.22324316982321
H         4.43138394372379   -0.35379790457917   -3.06287791623423
H         4.89509001949511    0.32890518861691   -1.50953204788265
C         3.69719568123289   -2.78122698380548   -2.35695170216522
H         3.04329318686102   -3.51511813138103   -1.89391113494206
H         3.19745263411130   -2.39514263945310   -3.24220813491732
H         4.62751274906128   -3.25566134813042   -2.65413514917842
H        -3.18554636654922   -3.36057455972071   -3.22940024110895
H        -5.17881962964353    1.43799287589283    1.32741928796221
C         0.23589999997762   -1.68140000001789    2.96030000000905
C        -1.01506362586894   -2.08634003769998    3.43722659870546
C         1.27373868761069   -1.64937380442942    3.87452628630889
C        -1.21809672579446   -2.39313555458179    4.76724525843655
H        -1.85448127247552   -2.18089246392123    2.76217302887452
C         1.10644375451676   -1.97590179040463    5.22632958147406
H         2.26614344841200   -1.40071905528616    3.52815723257174
C        -0.16811372654071   -2.37524483641366    5.69681372634644
H        -2.20980117441564   -2.69147526455579    5.06692070692241
C         2.23116811928829   -1.95558880141548    6.10664840773519
N        -0.32346257171124   -2.78179728902856    7.00857284806632
C         2.12250565214908   -2.35987591020515    7.39122458667066
H         3.17068300469254   -1.61798709525324    5.68584857455554
B         0.77009616197337   -2.84985005810980    7.89712586340269
C        -1.66232871976267   -3.14951996934996    7.43412876080429
H         3.00705665582139   -2.34292381382427    8.01468057962836
C         0.66221561029438   -3.50058180818927    9.33459852443957
H        -1.64167991111724   -3.39516630348713    8.49219238873389
H        -2.02350028411415   -4.01789035134612    6.87925465986225
H        -2.35352276831240   -2.31839792504852    7.28279607397395
C         0.99392006371868   -2.79170018423137   10.49066253840108
C         0.35230482083136   -4.85536646895497    9.47775185572619
C         1.01200579707334   -3.39655583237641   11.73313948942018
H         1.24275708955881   -1.74432089055065   10.41366365406635
C         0.37147091711317   -5.48238831010534   10.70938498004049
H         0.10330765613806   -5.43559750623673    8.60216000299765
C         0.70758612892997   -4.74913641974465   11.84060263017537
H         1.27263212920316   -2.83587432696902   12.61852666399543
H         0.13710389765644   -6.53262760330848   10.79783994703883
C         0.72374061054625   -5.39667709631453   13.18767918686514
F         1.74283893615739   -4.97880802631460   13.96708240532862
F        -0.39870765222793   -5.14039863304134   13.90649984005624
F         0.82024865634336   -6.73820594054320   13.14438013437961
