   95
 energy: -144.714555297310 gnorm: 0.000183045170 xtb: 6.4.1 (1a32961)
N        -0.94794182695976   -2.02623399226216   -0.36125309436076
C        -2.18620761995667   -1.52869030454993   -0.52737164928222
C        -3.04625012465307   -2.04929898940356   -1.50140600725800
C        -2.62561084744754   -3.09071919538718   -2.30065096644649
C        -1.34505825194758   -3.60128336267259   -2.11089504798361
C        -0.55269793847723   -3.03278519902004   -1.13448427882220
H         0.44838324781071   -3.39540440074880   -0.94957516209704
H        -0.97635875785915   -4.41765601433596   -2.71014426178051
H        -4.03243937653238   -1.63866940330266   -1.64094729777493
C        -2.56325689230588   -0.42394190296969    0.35071840154545
N        -1.60368707591819    0.04834681040039    1.17172608168358
C        -1.90071113563223    1.05081468530789    1.99342916811870
C        -3.14814607822386    1.63996618496696    2.05612882295425
C        -4.14913927290794    1.16533259160275    1.21461542455932
C        -3.84929364396595    0.12872759159600    0.35588830869822
H        -4.61415265975720   -0.25471411058501   -0.29842579451916
H        -3.33633818505190    2.44323400962792    2.74964467834747
H        -1.08794580788972    1.39054295889452    2.61635252812508
Ir        0.42150000000001   -0.81649999999993    0.91330000000003
B         0.41083208890398    0.57602257777106   -0.63695215238464
O        -0.19988038827455    0.26562060090046   -1.83783027945944
C        -0.27992316605100    1.43362358371166   -2.66275322147303
C         0.01418977101693    1.06017476357480   -4.11323198504094
H         0.94471590692003    0.50720040453631   -4.18490350608069
H         0.07188213545950    1.95607388383719   -4.72594103689122
H        -0.78720582086877    0.42870306483277   -4.48911012779011
C        -1.71902161609311    1.95762761910638   -2.55543105186766
H        -1.86904436331019    2.82697905169260   -3.18841910885075
H        -2.39981392794973    1.16854318278508   -2.86849154931596
H        -1.94758660948163    2.21043527610185   -1.52202985920702
C         0.76531216098526    2.39031387853018   -2.00037597919599
O         0.85022823194334    1.87851652184757   -0.66265524499197
C         2.16316085707115    2.24603733176069   -2.61421664070168
H         2.47122368973632    1.20516306683829   -2.55230900729009
H         2.18403443919681    2.59330655083484   -3.64308370790971
H         2.86378391868804    2.83478578465379   -2.02696719995325
C         0.36687073945087    3.86442017739475   -1.97310972102106
H        -0.53116764733861    4.02014585043022   -1.38352601790379
H         1.17108981736840    4.44207927904512   -1.52389799767313
H         0.20235759039184    4.22332990449228   -2.98587371407026
B         1.58104092826017    0.64348275509597    1.85206833258787
O         2.94837144419173    0.76524957351561    1.87617988955444
C         3.31767591716918    2.04563876393091    2.41047950775937
C         4.55796321679995    1.90352881208800    3.29079278175437
H         4.41718880014687    1.13980311787200    4.04847445526390
H         5.40359842697151    1.61426021084587    2.67210145906778
H         4.78463608114317    2.85190063807285    3.77031995478424
C         3.63946957163424    2.93964751887598    1.20731856483475
H         3.91541163755338    3.94305254017936    1.51726280456600
H         4.46822035842551    2.49789824446865    0.65877144735164
H         2.77649962976564    2.96431296645463    0.54693044082250
C         2.01889930564731    2.49106099133815    3.16565733861751
O         1.00734394002561    1.67037493016131    2.56439244256293
C         1.64415861399538    3.96110268864025    2.98648434762288
H         1.42481444313172    4.17434240606546    1.94575013837481
H         0.75478023930651    4.17586684139232    3.57379401079314
H         2.45299665023234    4.59953069160967    3.33104957712757
C         2.04541129201098    2.15670632502337    4.66214657649189
H         2.27571457929403    1.10555393551126    4.81016563015895
H         2.77178442331504    2.77001852437220    5.18649060723129
H         1.05909045746573    2.34398308036073    5.08049737834131
B         2.27820000000089   -1.33089999999973    0.17409999999979
O         3.08431988939898   -2.31084823799005    0.71363475444763
C         4.38023444076594   -2.28663746399164    0.10108907796180
C         5.31674090459778   -1.58948570659648    1.09371400579767
H         4.90488177548811   -0.61539190264940    1.34140431111493
H         5.35222088161060   -2.18038342326663    2.00560863301192
H         6.32193868477933   -1.49325282845186    0.69553440983168
C         4.86078798899593   -3.71961848002164   -0.12794026382875
H         4.97474403334181   -4.20790125866349    0.83629982369988
H         5.82072223716714   -3.71557350277119   -0.63635635413340
H         4.14450949254282   -4.28955179884176   -0.71006498499384
C         4.13203011035298   -1.45104885985058   -1.20488191171740
O         2.88483036318022   -0.79169607352094   -0.93390641031814
C         5.19773786185391   -0.39767409594153   -1.50218657163684
H         6.17165703948471   -0.86582306576721   -1.61407950756362
H         4.94478651537843    0.11337882027892   -2.42762151083998
H         5.23137490220532    0.33889694531615   -0.70717898222263
C         3.92233041011504   -2.31957985966697   -2.45239765379752
H         3.13305568618267   -3.04511938481346   -2.27707565918371
H         3.61077964991070   -1.67824578581942   -3.27325998011753
H         4.83870204444969   -2.83059613433334   -2.73141974875575
H        -3.27739465054764   -3.49859717574191   -3.05813791198696
H        -5.13929819456031    1.59472316045333    1.23252453822673
C         0.23589999999927   -1.68140000000039    2.96029999999947
C        -1.04955328312778   -2.06290347202015    3.34482439655367
C         1.20268681539767   -1.52781429097263    3.95547033287857
C        -1.35392150442633   -2.18307202673794    4.68606124328625
H        -1.82403976079528   -2.26603802851485    2.62151342722682
C         0.86358664547422   -1.66621457627106    5.28828481349192
H         2.21821939187934   -1.30068461574563    3.67391987602478
F        -2.62684008056780   -2.51920026403209    5.04188751345674
C        -0.42555378348379   -1.98485338400961    5.68998461425274
Cl        2.07816302985834   -1.44827758464014    6.50829399237288
H        -0.69616722533425   -2.08914791697435    6.72728055965727
