   95
 energy: -144.246336290214 gnorm: 0.000201251981 xtb: 6.4.1 (1a32961)
N        -0.94364006893575   -2.02419025801952   -0.36610212666523
C        -2.18383104571525   -1.53179621373543   -0.53237256030178
C        -3.04847285349108   -2.07016305242029   -1.49278781713178
C        -2.62819901257052   -3.11959015680297   -2.28168554437425
C        -1.34339166471413   -3.62063086984433   -2.09560008105966
C        -0.54824988481800   -3.03768225358994   -1.13003559905567
H         0.45552967325816   -3.39375663306719   -0.94678030431459
H        -0.97392246402025   -4.44162845723972   -2.68794975911429
H        -4.03885587119615   -1.66870528839856   -1.62884318960679
C        -2.55829107406204   -0.41391918255360    0.33005737958961
N        -1.60315436636507    0.05632147001731    1.15780930463906
C        -1.89828466498765    1.07247131663896    1.96382715022419
C        -3.13821623800479    1.67890419507777    2.00250377331669
C        -4.13384014812353    1.20769317320084    1.15269124635771
C        -3.83647628718596    0.15640692057257    0.31118346067551
H        -4.59689022626442   -0.22254679930588   -0.35075608154263
H        -3.32426417538325    2.49392206937023    2.68282158195015
H        -1.08968236899707    1.40993719308844    2.59365829426959
Ir        0.42150000000003   -0.81650000000005    0.91329999999998
B         0.41308827184149    0.58178883411085   -0.63100998486700
O        -0.20104398659361    0.27644920400926   -1.83064279427910
C        -0.28175364155636    1.44851812694861   -2.65046619368228
C         0.00595456277292    1.08067717759102   -4.10353463687736
H         0.93431127069432    0.52483507695670   -4.18114244600325
H         0.06479479441056    1.97928318287323   -4.71211643538451
H        -0.79893682472448    0.45386720808995   -4.47980253445340
C        -1.71908996669808    1.97548048016536   -2.53503757656096
H        -1.87017539016575    2.84571794755343   -3.16651171329144
H        -2.40338604587412    1.18828710883072   -2.84534218628222
H        -1.94229593196599    2.22835135205342   -1.50036151755998
C         0.76798885088350    2.39979400318797   -1.98777648047415
O         0.85349098313947    1.88363219942071   -0.65123701908925
C         2.16391268577628    2.25211599218658   -2.60486374770337
H         2.46791651505959    1.20969274044468   -2.54847746773074
H         2.18391535072983    2.60367595754747   -3.63227174311074
H         2.86823273946623    2.83547458396498   -2.01668417688319
C         0.37468847576975    3.87504658694293   -1.95561477275961
H        -0.52034547648758    4.03272142693198   -1.36192763962651
H         1.18280616812580    4.44919842941164   -1.50891992161346
H         0.20692667853655    4.23645455016395   -2.96693102798646
B         1.58190804463460    0.64124497655609    1.85806025286189
O         2.94726521829798    0.77531021550770    1.86565021575707
C         3.31354833376782    2.05325904275515    2.41003654737020
C         4.56356671934689    1.91071582945690    3.27649012841424
H         4.43835377656163    1.13836736726125    4.02811215205792
H         5.40509870843977    1.63521168293814    2.64610078024903
H         4.78748259873270    2.85552270747781    3.76396626015963
C         3.61842893191651    2.96095385295361    1.21297099341475
H         3.88969011306295    3.96308513873712    1.53083788246062
H         4.44612922334130    2.53054247719640    0.65392189500477
H         2.75037477256855    2.98631301162303    0.55932864564536
C         2.01959961314252    2.48254534851750    3.18316072677279
O         1.00778558110897    1.65223840690204    2.59286610474300
C         1.62513355600113    3.94831398740198    3.01241375436548
H         1.39183345031626    4.16237208462629    1.97481800041525
H         0.73974072232861    4.15026015412106    3.61034283708663
H         2.42981337062471    4.59528575360374    3.35039960646278
C         2.06908585867108    2.14628602111715    4.67819109735522
H         2.32653305324489    1.10136038812032    4.82217359706438
H         2.78842096611010    2.77232255587468    5.19665157610193
H         1.08380259985909    2.31206602326313    5.10805075855246
B         2.27819999999982   -1.33089999999985    0.17409999999883
O         3.09119266284505   -2.29679396625448    0.72712221102166
C         4.38451532832119   -2.27774731738870    0.10733562486762
C         5.32506115153649   -1.56746520153041    1.08654455948269
H         4.91227319862323   -0.59205152557869    1.32729315702215
H         5.36966933645793   -2.14883776551346    2.00415182270264
H         6.32704646380421   -1.47199344330716    0.68046334534938
C         4.86552407009692   -3.71304051243417   -0.10571882987116
H         4.98477371539573   -4.18882062808066    0.86412991826344
H         5.82308610728167   -3.71437593188963   -0.61844762698484
H         4.14734116485011   -4.29137191959402   -0.67721976929863
C         4.12803779248896   -1.45938168954229   -1.20830111294148
O         2.87601902220114   -0.80533202585968   -0.94381331114768
C         5.18523160355062   -0.40124837146777   -1.51868146321804
H         6.16238547850446   -0.86330283064621   -1.62709442524243
H         4.92714419885246    0.09775080227846   -2.44926670732726
H         5.21464405634747    0.34412540172490   -0.73171422588482
C         3.92330322349400   -2.34309458944644   -2.44578462524329
H         3.13929079014153   -3.07241047363460   -2.26245062857130
H         3.60708727679973   -1.71302223691464   -3.27356861688707
H         4.84300055545620   -2.85087165486996   -2.71960454139135
H        -3.28381967070758   -3.54084231735377   -3.02840628715906
H        -5.11776416987584    1.65142774009104    1.15076423651848
C         0.23590000000080   -1.68139999999914    2.96029999999966
C        -1.05003754354069   -2.05332771259189    3.35319478605581
C         1.21213231384791   -1.54091554358550    3.94818557423326
C        -1.34784746089281   -2.17855618190643    4.69596517645987
H        -1.83159415445187   -2.24497113362587    2.63430431867438
C         0.87648787037526   -1.68723937191083    5.27862927448704
H         2.22777100757205   -1.32007633562307    3.66004842723713
F        -2.62071755437404   -2.50458603435388    5.05888169382624
C        -0.40933371405970   -1.99592034663625    5.69357587730311
Br        2.22724876136326   -1.47206760749533    6.61158961979215
H        -0.67260029158496   -2.10473244638876    6.73285766811680
