   95
 energy: -144.246172018547 gnorm: 0.000245880438 xtb: 6.4.1 (1a32961)
N        -0.97638167928421   -1.99553721901467   -0.35073351912252
C        -2.20279773786666   -1.47281419205622   -0.53314269479403
C        -3.10120447615844   -2.04715954918859   -1.44144434490188
C        -2.72449472853140   -3.15295021955028   -2.17215880024574
C        -1.44763005960443   -3.67428046276047   -1.98211689548719
C        -0.62208991055070   -3.06113351965788   -1.06249806850521
H         0.37437219666270   -3.43562465478530   -0.87534496604456
H        -1.10896996227861   -4.53630746164261   -2.53308498608735
H        -4.08668802699152   -1.63312394109380   -1.57589307587263
C        -2.52294633721543   -0.28423795994357    0.24933527176142
N        -1.57090099846713    0.15052807309382    1.10169558102926
C        -1.81548674097807    1.23539167333052    1.83383771510777
C        -2.99264669074843    1.95132749971526    1.76530610978126
C        -3.97849797087059    1.52505266102046    0.87929284222530
C        -3.73681017343577    0.40115940365581    0.11854187620810
H        -4.48684597044355    0.06083798286179   -0.57564804561847
H        -3.13976892987086    2.81844049785925    2.38843841429351
H        -1.01903262978795    1.53039118172882    2.50007122269234
Ir        0.42150000000003   -0.81650000000005    0.91329999999984
B         0.38572330711030    0.59902556767005   -0.61153223400718
O        -0.13694766593856    0.27581793016761   -1.84631261285433
C        -0.22931922952958    1.45032634027128   -2.66240140968306
C         0.19784854407649    1.11459159749479   -4.08875238300454
H         1.16142075508036    0.61621648964074   -4.09061532759993
H         0.25163722666811    2.02030857963130   -4.68714141337164
H        -0.53345011650403    0.44300385840321   -4.53200371686371
C        -1.70118842265437    1.88694092555733   -2.66379573140606
H        -1.85277624812058    2.74627666596191   -3.31022849572452
H        -2.30982263902059    1.06006483724184   -3.02460552982397
H        -2.02379625130332    2.12821586593761   -1.65278503477265
C         0.70211688142932    2.45886764500149   -1.91276247610111
O         0.71610016443749    1.93417399238827   -0.57686300477931
C         2.14728798964860    2.40446371422993   -2.42135766443582
H         2.50960778158321    1.38163173498848   -2.35131542779190
H         2.22258393876124    2.77061163277834   -3.44101554545670
H         2.76833434674163    3.02105289892686   -1.77647389505745
C         0.21546634884001    3.90616936229233   -1.90135179859197
H        -0.73369194852608    4.00131744168533   -1.38270548345689
H         0.94682870965406    4.52368086410431   -1.38545413029354
H         0.10907963746422    4.26924028876072   -2.92026811864658
B         1.60569603564188    0.64010927273407    1.84377424060124
O         2.87666599925014    1.05168353675901    1.56359866688212
C         3.21562471154858    2.23340491233711    2.30532810084934
C         4.57400831748420    2.02511527969663    2.97849735350041
H         4.58348233713333    1.11517794944834    3.56967829201586
H         5.33606253541155    1.93037406562105    2.20945116760132
H         4.81765867603679    2.87578501544076    3.60764514219913
C         3.33275820237673    3.37131501558125    1.28546417878952
H         3.53573169264021    4.32044567170975    1.77175642293934
H         4.15012844662917    3.14041024786587    0.60646272687600
H         2.41861401902872    3.43089677162711    0.70206195919845
C         2.00736806155289    2.39955285790493    3.30290163246120
O         1.07820840091646    1.39457261715097    2.86885952634924
C         1.30032555887646    3.75567531257745    3.22782204212541
H         0.90295808411343    3.92600222530214    2.23217505389893
H         0.47067785964960    3.75674983112953    3.93137772988327
H         1.98282287346344    4.55705612510597    3.49421436621309
C         2.35546553865953    2.11450461856907    4.76825241390304
H         2.81970010817514    1.14037722588044    4.87851098178787
H         3.02214636628789    2.87686841198164    5.15879285367407
H         1.43645842328723    2.11944499170150    5.35055468164949
B         2.27820000000149   -1.33089999999909    0.17409999999994
O         3.14773731710233   -2.24174176553892    0.72521726303796
C         4.40229054137378   -2.21694212392144    0.02833822877626
C         5.36578679290948   -1.39107089327071    0.88520778321798
H         4.94080886897481   -0.40506072699132    1.04822489096349
H         5.46457004867064   -1.87205198651080    1.85481048347871
H         6.34357954287939   -1.31531369779797    0.42098490991813
C         4.93452028587476   -3.64241143887522   -0.10553280165124
H         5.14490021535501   -4.02783020079952    0.88830289478177
H         5.85190707816129   -3.64446599841199   -0.68698740566363
H         4.20658711293511   -4.29601236405204   -0.57475523370344
C         4.02922202533915   -1.51214276410210   -1.32267089933331
O         2.79152185798489   -0.85182228477801   -1.00749063130885
C         5.04375072985136   -0.47708320624615   -1.80447779147456
H         6.01983302472528   -0.93718893957083   -1.92891716407766
H         4.72006739240623   -0.07739663556826   -2.76238627225903
H         5.11114380787819    0.34338508037124   -1.09859244306786
C         3.73744811512897   -2.49950956958490   -2.46037205351911
H         2.99415583023829   -3.22700409060126   -2.14595021953800
H         3.33013333692562   -1.94792530437123   -3.30438413397573
H         4.64294979268492   -3.00986113452149   -2.77363403099420
H        -3.40641033679511   -3.60248630743379   -2.87775570570983
H        -4.91095066791635    2.06098724043178    0.78754293483778
C         0.23589999999997   -1.68139999999696    2.96030000000135
C        -1.09940790295998   -1.95566649590556    3.27597114303331
C         1.12047217049361   -1.64292711151236    4.03353176770035
C        -1.55255099091621   -2.05189482522038    4.57980591959916
H        -1.81535434428194   -2.10175299536357    2.48124827057372
C         0.70834863981116   -1.73589486636450    5.35418638819890
Br        2.99185594324456   -1.52507222783925    3.75855905592265
C        -0.63694728086263   -1.91417449845350    5.60556812844605
H        -2.59160448260782   -2.23610889419215    4.80330587808317
H         1.41523019695753   -1.68367211725262    6.16681391708789
F        -1.06237625208775   -1.99072483727077    6.89618349924797
