   95
 energy: -143.975486405401 gnorm: 0.000228865391 xtb: 6.4.1 (1a32961)
N        -0.94059252362501   -2.02363781690849   -0.36798094834107
C        -2.18036650552933   -1.53098707168491   -0.53746533133036
C        -3.04330472788999   -2.07058168907268   -1.49882132489943
C        -2.62212146684205   -3.12144895881884   -2.28514383568142
C        -1.33783081485289   -3.62280044611661   -2.09570489438087
C        -0.54433157591594   -3.03858590123304   -1.12970530741392
H         0.45894245603257   -3.39491733929466   -0.94399575942836
H        -0.96767630286629   -4.44510985025503   -2.68581556073434
H        -4.03323814637941   -1.66886746842632   -1.63744561708481
C        -2.55613618906166   -0.41170086308850    0.32216503347845
N        -1.60351263058125    0.05764108036163    1.15350492987391
C        -1.90029025277704    1.07556314323722    1.95680128706642
C        -3.13893652186592    1.68479139366573    1.98912575102222
C        -4.13190127535660    1.21449867311185    1.13559391351145
C        -3.83300254370021    0.16146708622581    0.29695836751571
H        -4.59123216335696   -0.21648912250247   -0.36806990501556
H        -3.32620702614907    2.50132450381322    2.66732926417036
H        -1.09383339397206    1.41245301917315    2.58967346073244
Ir        0.42149999999987   -0.81649999999997    0.91330000000010
B         0.41353891106812    0.58449931583993   -0.62985695117875
O        -0.21783391592998    0.28973236169099   -1.82372996291787
C        -0.29435564438825    1.46507699679536   -2.63904385162727
C        -0.02764778856834    1.09859558198726   -4.09655547788054
H         0.89156791272223    0.52952220695963   -4.18619566644335
H         0.03799552342235    1.99859631290377   -4.70232667793559
H        -0.84554495567431    0.48513423692313   -4.46682161834848
C        -1.72385592100872    2.00905587652375   -2.50578893435615
H        -1.87167678372472    2.88195585338288   -3.13437727689786
H        -2.42131400317920    1.23072642647494   -2.80906659120489
H        -1.93219800688440    2.26326172670778   -1.46831204127221
C         0.77399937474660    2.40228477273655   -1.98596278761337
O         0.86948665070578    1.88062705336801   -0.65239387352229
C         2.16083447227948    2.24168366880927   -2.62013438377010
H         2.45392248755633    1.19571757249688   -2.57247916392765
H         2.17271838716888    2.59795555254720   -3.64604020922965
H         2.87856566265237    2.81419856506476   -2.03750874190698
C         0.39776654810255    3.88175205154682   -1.94359185191980
H        -0.48838525398912    4.04702915067771   -1.33876036965022
H         1.21757993348584    4.44476394502432   -1.50408668911889
H         0.22228419775419    4.24925073261703   -2.95139025743201
B         1.57927617314811    0.64396640638678    1.85646296920726
O         2.94482153489169    0.77616830325489    1.86974385841829
C         3.31039583686159    2.05750811636175    2.40659853321619
C         4.55623586881945    1.91943931335740    3.27964365669227
H         4.42576565474268    1.15423981362886    4.03745060487213
H         5.39963791152340    1.63582411426861    2.65541609032414
H         4.78079569017953    2.86799980380999    3.75947061525512
C         3.62222250035693    2.95672407113741    1.20494718217044
H         3.89257092905360    3.96080835930912    1.51744313450391
H         4.45265981490833    2.52209594957165    0.65323091683570
H         2.75767462265081    2.97818828993177    0.54656819933166
C         2.01335951450234    2.49372814774015    3.17068267349595
O         1.00308329421527    1.66167520998809    2.58045498857114
C         1.62251124134167    3.95918709960947    2.98992736440266
H         1.39547676853741    4.16794560218718    1.94984762098813
H         0.73406990731347    4.16608784680398    3.58164435435344
H         2.42648660011562    4.60653710285574    3.32884826940087
C         2.05502690048661    2.16400599045562    4.66723330031041
H         2.30346495785500    1.11702811687696    4.81326506047736
H         2.77740904806418    2.78606350131968    5.18622764617934
H         1.06953370532746    2.33802634141084    5.09339066309702
B         2.27819999999995   -1.33089999999959    0.17410000000009
O         3.09391046496160   -2.29084356547863    0.73319870069721
C         4.38659778243261   -2.27374888500464    0.11209724993937
C         5.32708255263290   -1.55674836482485    1.08645429083103
H         4.91300897779663   -0.58076368521061    1.32253962714688
H         5.37357023051623   -2.13317473637799    2.00707249895445
H         6.32849346722787   -1.46189889745529    0.67882147374153
C         4.86901826131502   -3.70982268993014   -0.09265352861939
H         4.98818677230709   -4.17988680658006    0.87998926514038
H         5.82684275067118   -3.71333700882971   -0.60488170308395
H         4.15162754870998   -4.29217089815661   -0.66110339347699
C         4.12783803415562   -1.46360039721611   -1.20836185851765
O         2.87338299281931   -0.81225601643111   -0.94839481124713
C         5.18145220959257   -0.40334052103230   -1.52380357851116
H         6.16046595884635   -0.86232216653216   -1.62826841636554
H         4.92261412372824    0.08907463075297   -2.45768498556009
H         5.20702266861697    0.34688051059403   -0.74131158987300
C         3.92760839722097   -2.35472931067461   -2.44126906004185
H         3.14524410099282   -3.08525399264063   -2.25562930287575
H         3.61163325324502   -1.73017496089289   -3.27333660847155
H         4.84922618511983   -2.86156418841656   -2.71032095964495
H        -3.27642400680932   -3.54359988383472   -3.03250297801279
H        -5.11481983028407    1.66043785028010    1.12862174029915
C         0.23589999999928   -1.68139999999998    2.96030000000143
C        -1.05012905748966   -2.05472371698912    3.34942004323544
C         1.21400829817308   -1.55067238115115    3.94805448533983
C        -1.34376361287095   -2.19308874856272    4.69143602299982
H        -1.83321616003682   -2.23869102899645    2.63003617082601
C         0.88437618761515   -1.71272351981392    5.27684671636170
H         2.22698548527972   -1.32689965569408    3.65302238853127
F        -2.61665297667964   -2.52085556279552    5.05597251363634
C        -0.40056237073616   -2.02508649869519    5.68726102858463
I         2.39086838646647   -1.50409339773119    6.75727070642940
H        -0.66889454616906   -2.15048861323962    6.72331989756275
