   95
 energy: -143.977787907862 gnorm: 0.000358856671 xtb: 6.4.1 (1a32961)
N        -0.92863361375765   -1.95153930167567   -0.41574137361466
C        -2.14931727466209   -1.42064361856484   -0.60394273273033
C        -3.04716815445599   -1.99001422105163   -1.51539461491707
C        -2.67708384439925   -3.10048249456187   -2.24196190114399
C        -1.40515433854434   -3.63031938660043   -2.04583277759937
C        -0.57974577427300   -3.02003604275159   -1.12451391075900
H         0.41415980846185   -3.40110249090144   -0.93593498702153
H        -1.07021087656675   -4.49689099566395   -2.59213247206183
H        -4.02997820344344   -1.57057358444322   -1.65282275689721
C        -2.47326181067410   -0.23679062408370    0.18247330953046
N        -1.53935263220250    0.18045648123703    1.06278884660526
C        -1.80133745460557    1.24920933867507    1.81350648332366
C        -2.97452772778949    1.96952319192393    1.73316371650073
C        -3.93772875643247    1.56736357206410    0.81208633237857
C        -3.67932133820087    0.45821056419321    0.03553461319191
H        -4.41209821378641    0.13521548033542   -0.68481632612628
H        -3.13510501234227    2.82120304038630    2.37423799662018
H        -1.02255658519134    1.52820057069197    2.50769228137183
Ir        0.42149999999949   -0.81650000000251    0.91330000000449
B         0.41373147871241    0.62504714288081   -0.59316505887060
O        -0.11608085995933    0.33481975290801   -1.83227037418674
C        -0.18423157139899    1.52397381398899   -2.62908812615790
C         0.23654596229671    1.20283090939936   -4.06076234720869
H         1.18840495667759    0.68248418878217   -4.07073306430242
H         0.31157403808670    2.11740162060278   -4.64321170798126
H        -0.50977346601132    0.55592515145260   -4.51564787532441
C        -1.64614338846384    1.99250819699494   -2.62462784298562
H        -1.77798799916791    2.86373522228042   -3.25939651840339
H        -2.27291315740179    1.18425609251929   -2.99662497251929
H        -1.96485080682794    2.22720348801462   -1.61078089088080
C         0.76784011383268    2.50066578545677   -1.86369216158615
O         0.77197566124852    1.95274690523473   -0.53661184419432
C         2.21075445936063    2.42595674579713   -2.37615373079741
H         2.54946838111412    1.39355769271158   -2.33474120158977
H         2.29207516595048    2.81547142591211   -3.38658966884844
H         2.84671007407247    3.01234275815530   -1.71783014487284
C         0.31051430067791    3.95717965402301   -1.82740126943788
H        -0.63247795336179    4.06345823670526   -1.29949963945725
H         1.05817374347333    4.55356491468716   -1.30983696920987
H         0.20256217244889    4.33629233551422   -2.84027713277850
B         1.59251528949474    0.63627021939740    1.87908084970373
O         2.85445228868403    1.07906926065053    1.59602694855931
C         3.16587977430223    2.27155917590154    2.33375374198588
C         4.53049576364703    2.10587970817497    3.00615632564839
H         4.56228740501606    1.21927628002723    3.62998463345093
H         5.28898933755345    1.99529886924147    2.23583823015681
H         4.76317245966902    2.98254667256179    3.60306754688583
C         3.25973188815660    3.40989317227002    1.31167002461301
H         3.43424658917942    4.36483617282112    1.79781665262567
H         4.08900657651447    3.19979105977615    0.64021884675406
H         2.34902917467368    3.44468548921856    0.72150889234009
C         1.95370818869326    2.41439546290664    3.33001357301469
O         1.05532038408075    1.37533173866065    2.91088260981645
C         1.20313413383801    3.74607211353779    3.23348144180324
H         0.80640714483375    3.89059426100601    2.23334831265993
H         0.36900461471390    3.72816366022775    3.93173798094327
H         1.85646034464134    4.57343667223792    3.49377533433256
C         2.30871585601511    2.16642545212917    4.79989133927546
H         2.79042828988221    1.20338447398584    4.93026348965135
H         2.96220381007539    2.94881404027633    5.17261085627654
H         1.39068467132097    2.16551343780655    5.38351657365825
B         2.27819999999626   -1.33089999999510    0.17410000000312
O         3.22569036694959   -2.13266423326076    0.76200687582830
C         4.42946298507531   -2.14296388708856   -0.02005607635133
C         5.40316458047084   -1.16672757251757    0.64617799140242
H         4.92952027217397   -0.19236500056816    0.72769032203153
H         5.61342613280902   -1.52009866066335    1.65268889768922
H         6.33298953530437   -1.09642731224371    0.09129527334221
C         5.02851866107138   -3.54740374178345   -0.00821925335870
H         5.33083435011196   -3.78627816430903    1.00771069755399
H         5.89988339839239   -3.58548512973802   -0.65548480844564
H         4.30571824549872   -4.29035423969253   -0.32890716986758
C         3.92680144723295   -1.63983849937586   -1.41661528343552
O         2.69627453417301   -0.97162549144560   -1.08792681931424
C         4.86483817339700   -0.66283691483762   -2.12183563439904
H         5.83842798323850   -1.12139847766514   -2.27011755651304
H         4.44835344818567   -0.40503377954065   -3.09266845166894
H         4.97335404841005    0.24815344801328   -1.54324701844930
C         3.57711685212136   -2.78343932215676   -2.37823456534500
H         2.90053667217194   -3.48538215591339   -1.89817255708568
H         3.06890277289353   -2.36650459418837   -3.24446294341800
H         4.47236170564434   -3.30262115353497   -2.70630239645085
H        -3.36079342335365   -3.54745331076405   -2.94762066618414
H        -4.86584396019204    2.10854261139380    0.70731479377885
C         0.23589999999581   -1.68140000001991    2.96030000000736
C        -1.08871742073556   -1.97286444524883    3.29163637086529
C         1.08742503959744   -1.63720877707121    4.05969999481162
C        -1.58216204872192   -2.04936791660932    4.57911411259587
F        -1.98629128823825   -2.23561037462868    2.29192415005627
I         3.17758348172218   -1.59353755985328    3.81763691931350
C         0.64054082832270   -1.70375105917337    5.36967155625011
C        -0.70531259933928   -1.87881287964974    5.63562693156858
H        -2.63094102767088   -2.25129572565619    4.73333237732397
H         1.34667297349171   -1.63641673634184    6.18225935939756
H        -1.05906631687393   -1.92045055306584    6.65309395253662
