   95
 energy: -143.974651908783 gnorm: 0.000347248398 xtb: 6.4.1 (1a32961)
N        -0.95637848292792   -1.97678628377606   -0.38603842177381
C        -2.18287465644634   -1.45549631907907   -0.57468940109113
C        -3.06463616265188   -2.01212278643242   -1.51010886753550
C        -2.67172633784076   -3.09706643779756   -2.26271852857379
C        -1.39468335455573   -3.61600320779952   -2.06708057357308
C        -0.58667516324005   -3.02218775189927   -1.11992483097790
H         0.40912961037056   -3.39626004565042   -0.92939725051295
H        -1.04262185203859   -4.46105414861699   -2.63558895530145
H        -4.04967483598271   -1.59880738500513   -1.65007157765380
C        -2.52025976862890   -0.28423239094333    0.22537623405856
N        -1.57653068015183    0.14910392548434    1.08785782550885
C        -1.83409232497456    1.22523680159427    1.82842983906082
C        -3.01724919468159    1.93100259861613    1.76275373649537
C        -3.99750374619801    1.50208524196521    0.87151175347430
C        -3.74150691667466    0.38933968446476    0.09968351984140
H        -4.48726251883425    0.04711572315658   -0.59814087959070
H        -3.17407301543722    2.79112340182105    2.39328704317639
H        -1.04287260083410    1.52130251813838    2.50039648852801
Ir        0.42150000000005   -0.81650000000013    0.91330000000052
B         0.39175241477075    0.62511584776473   -0.59239909308565
O        -0.17362045683142    0.34591565717918   -1.81922421843067
C        -0.24702341586746    1.53991349641782   -2.60866194352627
C         0.12509938916230    1.22142178231861   -4.05414242302884
H         1.06973390653156    0.68989291813326   -4.09688239741418
H         0.19357207158267    2.13858042385921   -4.63331407920739
H        -0.64300881941873    0.58683439897694   -4.48967268322145
C        -1.70076234533801    2.03043567346954   -2.55613651930115
H        -1.83843944392491    2.90930696041779   -3.17891453621918
H        -2.35075116057111    1.23542135066281   -2.91639718967358
H        -1.98411246554890    2.26087991291008   -1.53087455651842
C         0.74186658376709    2.49833304445725   -1.86774255717333
O         0.77180731212513    1.94682854977268   -0.54291442481487
C         2.16975406004790    2.39995658584965   -2.41711605350039
H         2.49017655647701    1.36120285314851   -2.39207160438144
H         2.23413514100219    2.79687019193110   -3.42594056948279
H         2.83225835427856    2.96826759365994   -1.76908431484110
C         0.31092140208250    3.96252646757782   -1.81705907786921
H        -0.61151208504690    4.08467495383722   -1.25723975295209
H         1.08586083114627    4.54622767179797   -1.32580238389585
H         0.17478853090558    4.34376521789868   -2.82575002261651
B         1.58864805391381    0.63711847509252    1.87489348701309
O         2.86266978648147    1.05915490578590    1.61891260188691
C         3.16768466358395    2.25844820899187    2.34807042902725
C         4.52467088233218    2.09877235061631    3.03606697285118
H         4.55017417691910    1.21487469210001    3.66401645986623
H         5.29237804394195    1.98590397206552    2.27533808727222
H         4.74904177380793    2.97826505134735    3.63214347856076
C         3.26906821410608    3.38534942690540    1.31400838338182
H         3.44052393803684    4.34592757392752    1.78990186927398
H         4.10244827412501    3.16725370279576    0.65032316944069
H         2.36203071818540    3.41234398830572    0.71755499495948
C         1.94482107491596    2.41097599720533    3.32919630844383
O         1.03585163390998    1.39149774027522    2.88632533202331
C         1.22041769473914    3.75716443751894    3.24112974346120
H         0.83527956606745    3.92052351160148    2.23953887233442
H         0.38063703495939    3.74851238447956    3.93272096276011
H         1.88803935275792    4.56829211174821    3.51594074835099
C         2.27735379683057    2.13664890508426    4.79991251019649
H         2.74585815071020    1.16576041492024    4.92104391895510
H         2.93527089540606    2.90456904091579    5.19434955662568
H         1.35183998618055    2.13772379369415    5.37199535140783
B         2.27819999999962   -1.33090000000030    0.17410000000216
O         3.22680943288632   -2.11924579198431    0.77519585836566
C         4.43416911361388   -2.13188215964228   -0.00092686069744
C         5.40139976922589   -1.14717878998570    0.66213279010825
H         4.92237503081989   -0.17512877409958    0.73759583532338
H         5.61063587960186   -1.49431995831864    1.67099179435789
H         6.33250383550000   -1.07525113791579    0.10962057612065
C         5.03754092653258   -3.53433894144865    0.02722732662007
H         5.32753187019981   -3.76487928310252    1.04866269711767
H         5.91734740728860   -3.57397951584643   -0.60833091487777
H         4.32143223386068   -4.28208841035058   -0.29700249243822
C         3.93680384208811   -1.64297738967800   -1.40522196734069
O         2.69658134356811   -0.98508084318815   -1.09113817525817
C         4.86842057597123   -0.65878612093546   -2.10892057287384
H         5.84803522524978   -1.10640749501763   -2.25029960226790
H         4.45410420034325   -0.40908369832227   -3.08271734732077
H         4.96272529488231    0.25544527164530   -1.53313850007129
C         3.60785714922073   -2.79593543357384   -2.36273283324341
H         2.93154350424834   -3.50000056887440   -1.88571039832016
H         3.10740582755470   -2.38927885305361   -3.23814354104929
H         4.51126726452779   -3.30990305322285   -2.67619774236737
H        -3.34089027254624   -3.53180138606190   -2.98952678495855
H        -4.93614258156561    2.02796343234013    0.78452047945824
C         0.23589999999561   -1.68140000000196    2.96030000000708
C        -1.11621513040590   -1.92469261765968    3.23300855233422
C         1.08455164967202   -1.65277131577408    4.05942622623070
C        -1.62088588946599   -1.97967911823657    4.51984675793020
H        -1.80591730663253   -2.08248790500876    2.41745513509106
C         0.61822027502557   -1.70170737279648    5.36357856808920
I         3.17743802956969   -1.64320264789868    3.84789365275440
C        -0.73954417054041   -1.83333527200552    5.57301865113010
H        -2.67109204700803   -2.13883374580259    4.70837592238186
H         1.28789262374968   -1.65381361577583    6.20744361452770
F        -1.21027322054501   -1.86266484027471    6.85065898587594
