   94
 energy: -144.994135500307 gnorm: 0.000218037176 xtb: 6.4.1 (1a32961)
N        -0.99519377450355   -2.01828527390692   -0.32759017547563
C        -2.21180548897698   -1.47696922847635   -0.51371686356882
C        -3.07342904318056   -1.96439363076163   -1.50263802324117
C        -2.67598222442890   -3.01915474353199   -2.29716296046800
C        -1.41838141017645   -3.57518881417644   -2.08669224059686
C        -0.62237363210249   -3.03729840598466   -1.09540572581481
H         0.36184616030413   -3.43582031455798   -0.89465555025690
H        -1.06743631010326   -4.40244562657028   -2.68154260068309
H        -4.04044673619563   -1.51641674472012   -1.65987388852882
C        -2.56099906987112   -0.35517447660463    0.35606457558726
N        -1.58981300571135    0.09852475802052    1.17377513606661
C        -1.85690050985298    1.12084719416896    1.98129179835830
C        -3.08629471094044    1.74895399514458    2.03162754330975
C        -4.09958886611748    1.29200168281137    1.19558877607692
C        -3.83049541307941    0.23347818523890    0.35272680951030
H        -4.60578218116913   -0.13809369436489   -0.29588162364607
H        -3.25012237531163    2.56935531013711    2.71103275708900
H        -1.03692697950249    1.44161954348879    2.60554904574153
Ir        0.42149999999992   -0.81649999999996    0.91330000000002
B         0.41040338472938    0.53615043850566   -0.66421128824167
O        -0.10255476605872    0.16113575199792   -1.88990540272538
C        -0.19598903034636    1.30228249148866   -2.75183122532406
C         0.22613577629046    0.90967502460868   -4.16501265492501
H         1.18914482741201    0.41063540897817   -4.15018525359771
H         0.27805464473556    1.79031260772040   -4.79979248300992
H        -0.50710741403186    0.22111084098086   -4.57763215348317
C        -1.66892451881225    1.73547293463368   -2.76313507976479
H        -1.82580552281119    2.57377006833537   -3.43522280173073
H        -2.27515766572229    0.89528792554811   -3.09547948132243
H        -1.98680989643146    2.00540909202045   -1.75802824893562
C         0.73713697330102    2.33924433268734   -2.04390198967105
O         0.75344512803517    1.86691546403774   -0.68784118778346
C         2.18187497803700    2.26632285295546   -2.55192371935001
H         2.54847378024485    1.25014243405838   -2.42870308517705
H         2.25421262988036    2.58005741133067   -3.58915483252723
H         2.80055275550694    2.91861794736468   -1.94067820618236
C         0.24953680937996    3.78557181363333   -2.08881922806873
H        -0.70282522321473    3.89886823290588   -1.58054482472643
H         0.97700354567822    4.42123968270793   -1.59011067494564
H         0.15026772173501    4.11091221723628   -3.12110805508247
B         1.62280202542242    0.63587044062479    1.82213917278929
O         2.94752103206800    0.91121770188299    1.64117689704993
C         3.30451586189945    2.13294357845825    2.30404356480920
C         4.64603355994327    1.95234361883529    3.01379593928694
H         4.62678457408772    1.08134998248823    3.66079453561024
H         5.42399753926984    1.80336145884372    2.26926812401115
H         4.88581529086255    2.83711716202905    3.59684079026798
C         3.44573476087438    3.19375871039875    1.20614288365285
H         3.68702280702163    4.16757852269590    1.62110238888298
H         4.24310695942131    2.88678816875815    0.53354405996886
H         2.52356540087257    3.23870875435586    0.63293638436630
C         2.08401179627259    2.38879433982778    3.25877164990109
O         1.07668537623471    1.50875158691065    2.73719870133603
C         1.54480712350715    3.81950109980222    3.24081273430499
H         1.18645092613862    4.08376962988118    2.25144247991654
H         0.71253877066277    3.89185841237901    3.93683294967536
H         2.31878589634422    4.51622066771666    3.54980127347160
C         2.34530125200601    1.97522836128522    4.71210997104300
H         2.68249720930840    0.94451832053799    4.76022649186890
H         3.08384435955617    2.62292411434782    5.17405405511008
H         1.41440171171524    2.04897927171240    5.27017619790931
B         2.27820000000020   -1.33090000000061    0.17410000000013
O         3.05759015768150   -2.33905604653291    0.69790343798918
C         4.37099811648715   -2.29728411513620    0.12428070154588
C         5.27170110816853   -1.61083332660364    1.15592937565300
H         4.86046691550925   -0.63267894479792    1.38673024583343
H         5.25605624388155   -2.19880441742433    2.07017274687805
H         6.29445808057350   -1.52671336138608    0.80220162920399
C         4.86623313758385   -3.72288959888157   -0.11699405951633
H         4.96028007157110   -4.22536576599638    0.84216542923701
H         5.83829113827046   -3.70365767528510   -0.60140090762911
H         4.16819731750362   -4.28758460712262   -0.72601356895864
C         4.15408614451764   -1.43739920563987   -1.17063605857726
O         2.90702686699972   -0.77212721333206   -0.90983418712605
C         5.23292758223673   -0.38753900055498   -1.42843337343188
H         6.20778183743823   -0.85953192605989   -1.51143660868044
H         5.01195485633214    0.13039822829460   -2.35831562067570
H         5.24230508632580    0.34240675459332   -0.62670299210413
C         3.95864723307033   -2.28399211181071   -2.43520227582965
H         3.16208912943101   -3.00684978343325   -2.28304963403924
H         3.66467125239211   -1.62729352602259   -3.25031213008944
H         4.87644111155220   -2.79634809425195   -2.70661119581111
H        -3.32838802372832   -3.40189954693867   -3.06710657273272
H        -5.07604184481497    1.75171624202893    1.20502052948073
C         0.23590000000019   -1.68140000000004    2.96029999999973
C        -1.04815801361159   -2.04388624612067    3.37927902150637
C         1.15358153585183   -1.56687895782868    4.00153145908201
C        -1.36807111197576   -2.16210025447868    4.72470107951280
H        -1.81838226749446   -2.23760606782399    2.64778383115570
F         2.45789488562921   -1.34093651718632    3.74152723210987
N         0.89189427664537   -1.67416537317516    5.28479974312155
C        -0.35119671876680   -1.94408245049431    5.63636568867956
H        -2.36077567364941   -2.41831803068872    5.05549564759132
Cl       -0.64475546408292   -2.03816475607625    7.33379198845983
