   95
 energy: -144.716229198437 gnorm: 0.000259032146 xtb: 6.4.1 (1a32961)
N        -0.97135352571935   -2.00899454866173   -0.34284916977897
C        -2.19867086416621   -1.48912877875262   -0.52490665145183
C        -3.09126729801102   -2.05744058805422   -1.44238266857641
C        -2.70924803081259   -3.15734030722560   -2.17943319917913
C        -1.43288669548787   -3.67842103990013   -1.98640929315439
C        -0.61200076838105   -3.06945645194335   -1.05975253512530
H         0.38408812211710   -3.44365226677794   -0.86988597727837
H        -1.09103114484107   -4.53707908878774   -2.54076940840600
H        -4.07633306791490   -1.64345152362393   -1.57961876374014
C        -2.52720440603607   -0.31112858511119    0.27102786359847
N        -1.57423273422601    0.12840347651778    1.11916841396350
C        -1.82938019136261    1.19848064538157    1.86864251248189
C        -3.01926143619532    1.89584750392063    1.82008222165098
C        -4.00591063130881    1.46572140348624    0.93760736909921
C        -3.75320880823118    0.35569955543937    0.16001754115517
H        -4.50519687530993    0.01070527695978   -0.52973568008284
H        -3.17507301605484    2.75146182690246    2.45673588898251
H        -1.03044248818611    1.49798291375051    2.52958659372487
Ir        0.42149999999980   -0.81650000000023    0.91330000000086
B         0.39395469233799    0.58553917243369   -0.62564619443027
O        -0.13331583327884    0.25085132594207   -1.85642544488447
C        -0.22805486621665    1.41725354513707   -2.68337623836877
C         0.18339568093259    1.06640982337867   -4.11075666497197
H         1.14507607974386    0.56441986001263   -4.11791668801811
H         0.23435418682296    1.96628172845489   -4.71819667625128
H        -0.55480586401597    0.39344972747034   -4.54010206474316
C        -1.69827735391806    1.85936510534558   -2.67332307632697
H        -1.85421859065450    2.71407895891025   -3.32482111691250
H        -2.31311141985685    1.03137691251723   -3.02064490096231
H        -2.00865896309444    2.10861767672271   -1.66045251199092
C         0.71459238643365    2.42899839245576   -1.95258893764188
O         0.73750227503680    1.91819082070613   -0.61160768508311
C         2.15544272059929    2.36327187319417   -2.47295972993703
H         2.51575163222905    1.34069087274596   -2.38963553796492
H         2.22328498295763    2.71311805114938   -3.49889596007942
H         2.78351434821582    2.98859118481074   -1.84330498678150
C         0.23459361866201    3.87862863959815   -1.95309662457921
H        -0.71166416987745    3.98282703485440   -1.43126047525121
H         0.97094088362502    4.49758918277011   -1.44618657106489
H         0.12541161287744    4.23214073731323   -2.97511886014739
B         1.60842734046306    0.64909354473210    1.82881059548435
O         2.91476561930956    0.99172836053573    1.60200558157005
C         3.25669266651925    2.19693566465645    2.30270375880094
C         4.60237414443330    2.00561523154553    3.00451687360222
H         4.59120612014393    1.12258373758854    3.63528685631933
H         5.37732462535155    1.87368720684953    2.25343675670415
H         4.84226258962252    2.87967222095676    3.60297747305491
C         3.39299542941829    3.29356694215516    1.24050890187575
H         3.61229095249256    4.25765676809163    1.68902095136233
H         4.20435232358747    3.02276995620559    0.56864175208812
H         2.47763385770172    3.34284486566384    0.65752351710540
C         2.03655207761480    2.41109587910580    3.27225308892274
O         1.06463950498230    1.47442290399262    2.78576178317710
C         1.42218934768440    3.81141593716636    3.22617512417510
H         1.05105509603809    4.03584207385364    2.23150712547467
H         0.58520736015928    3.84983480397509    3.91927158188531
H         2.15456161649119    4.55683063857465    3.52247393492631
C         2.33002974156353    2.05057542248402    4.73357580116230
H         2.71197890242043    1.03739128753104    4.80906347644010
H         3.04227911206576    2.74540961343908    5.16739022869671
H         1.40004299529032    2.10050081857374    5.29519213114598
B         2.27819999999989   -1.33089999999941    0.17409999999863
O         3.11816551483254   -2.27993027409107    0.71668025880255
C         4.39476189666514   -2.24663997700555    0.06477225684481
C         5.33819054460493   -1.47100242094746    0.99036438748387
H         4.92083404644645   -0.48531347317749    1.17699187799169
H         5.39684575558556   -1.99470498100757    1.94180523577263
H         6.33462467110720   -1.39073760428746    0.56754166221614
C         4.91312669997424   -3.67337763245103   -0.10999031892504
H         5.08458243949238   -4.10507063278784    0.87256544045368
H         5.84963108064628   -3.66535901091377   -0.66034177272044
H         4.19199665208052   -4.29543074110985   -0.62961749483455
C         4.07956264303312   -1.48192765057192   -1.26809495444388
O         2.83915872252206   -0.81982265583535   -0.97197728473961
C         5.12172079349186   -0.43927635879370   -1.66785395694637
H         6.09764472608748   -0.90392065707757   -1.77691646510186
H         4.83615245329540    0.00522923822337   -2.61797002998895
H         5.16958481190844    0.34928950461897   -0.92485199079169
C         3.82040163672512   -2.41891437259334   -2.45525509002766
H         3.05531410676192   -3.14667947371176   -2.19929564491762
H         3.45364860379306   -1.82802770792389   -3.29103753561895
H         4.73053805000371   -2.92963336066644   -2.75446505816118
H        -3.38706791280782   -3.60272929974486   -2.89158945795949
H        -4.94832960351774    1.98658822317189    0.86204320417308
C         0.23590000000085   -1.68140000000059    2.96030000000214
C        -1.08387304160196   -1.98684022556164    3.29884717352091
C         1.14784424358241   -1.62959032979009    4.01477667106120
C        -1.45716270375225   -2.10940008738009    4.62208442549457
H        -1.83824983333209   -2.13019951043388    2.54046573719593
C         0.76960566454353   -1.76243870837735    5.34208736949146
Cl        2.82318785438151   -1.41469814323594    3.66643899227433
F        -2.76759393802527   -2.36945460268889    4.90637380017750
C        -0.55762289599064   -1.99017426966698    5.66375534980267
H         1.51527787760839   -1.69641601131317    6.11705783335482
H        -0.88420015532534   -2.09178225549501    6.68533847173098
