   96
 energy: -145.014570127675 gnorm: 0.000224352789 xtb: 6.4.1 (1a32961)
N        -0.90569779533721   -2.00268656027332   -0.41742578229545
C        -2.13834046779337   -1.50404098526030   -0.60789188702516
C        -3.00900748443001   -2.07899004680998   -1.53978221651579
C        -2.60191982973600   -3.17039238201205   -2.27665112473431
C        -1.32144561126368   -3.67266122068496   -2.07155846929347
C        -0.52065869602265   -3.05287497375385   -1.13414573604468
H         0.47990690068272   -3.41079534848541   -0.93511524162616
H        -0.96119255841899   -4.52675330728922   -2.62163884698787
H        -4.00098499856214   -1.68461319154489   -1.68149208196184
C        -2.50811098979126   -0.35263301724249    0.21104718848320
N        -1.59412288559449    0.07217954914471    1.10647761525318
C        -1.90192641499315    1.09664273856692    1.89856043391509
C        -3.10894916965696    1.76427175816458    1.84675863133670
C        -4.05240754083116    1.35430939676360    0.91094357274597
C        -3.74400420467941    0.28993751590510    0.08978796706654
H        -4.46357175859285   -0.04107865024269   -0.63945312936150
H        -3.30734246272786    2.58275551406020    2.51955850848628
H        -1.12883291453367    1.39254614629605    2.59142868030318
Ir        0.42149999999986   -0.81650000000026    0.91329999999978
B         0.43185159582199    0.61040872678690   -0.61111008416297
O        -0.19665897802589    0.32538297445939   -1.80716245300119
C        -0.26566216164845    1.50366217074379   -2.61894878124881
C         0.00637503049945    1.13758938395103   -4.07568724553211
H         0.92607133494859    0.56878732885649   -4.16249348263726
H         0.07272302886938    2.03720191996028   -4.68193683587924
H        -0.81004588009872    0.52276054689365   -4.44683942758509
C        -1.69354695604067    2.05320207610923   -2.49328482742603
H        -1.83398748952969    2.92612558347808   -3.12363048208258
H        -2.39219930695859    1.27730520691533   -2.79961192755680
H        -1.90759755173195    2.30897156090129   -1.45746383926286
C         0.80312868149624    2.43475676814439   -1.95772885638204
O         0.89621697649417    1.90405149044331   -0.62666857740566
C         2.19012934646621    2.27736452410172   -2.59205401038098
H         2.48313982413141    1.23126019918567   -2.54869257708045
H         2.20116271431572    2.63720004984272   -3.61670630500353
H         2.90817776226119    2.84829163501697   -2.00823823419808
C         0.42832618049035    3.91422118928845   -1.90509125852931
H        -0.45949786994318    4.07518480060261   -1.30167995379474
H         1.24740474897814    4.47313835581169   -1.45902146378736
H         0.25603317280520    4.28926312415584   -2.91062043596367
B         1.56934454765700    0.64857896009540    1.86470312735690
O         2.93695183290519    0.77045237712220    1.88116478266840
C         3.31341239278501    2.05040859433841    2.41142361313348
C         4.54550083557801    1.89804073517492    3.30220563753893
H         4.38753602657088    1.14566564128824    4.06783204586666
H         5.38941778694759    1.58634834029751    2.69211605327825
H         4.78607549351280    2.84800725556812    3.77156657539975
C         3.65781813482573    2.93401231416344    1.20698660634387
H         3.93628658232698    3.93757109406263    1.51406350373735
H         4.49137069453420    2.48323454183880    0.67311828701598
H         2.80438709638544    2.96006538103537    0.53476127340102
C         2.01289973040294    2.51378900182605    3.15493648631963
O         0.99964519703332    1.67845440614309    2.57583931575545
C         1.63581691210200    3.97796292900744    2.93604091455599
H         1.42349142850919    4.16373236166873    1.88864194425146
H         0.74091924227718    4.20361758577251    3.51063791763008
H         2.43972801485878    4.62785611900614    3.27028800951042
C         2.03778956767844    2.22040445611697    4.65993665631602
H         2.25954392898629    1.17184181123962    4.83635123442079
H         2.77016639675480    2.84126672388265    5.16678547451355
H         1.05361996808510    2.42817128106687    5.07352825635025
B         2.27820000000014   -1.33090000000038    0.17409999999983
O         3.10385230265766   -2.29209979680127    0.71695626068384
C         4.38367247435666   -2.27421433918176    0.06954117308503
C         5.33948264081960   -1.54240317105638    1.01774622891502
H         4.92593624304570   -0.56490399719867    1.24912948465812
H         5.40389342146181   -2.10715694493570    1.94451464030165
H         6.33301995904471   -1.44941032965053    0.59065683228018
C         4.87049808142962   -3.70848594892505   -0.13527739128632
H         5.02046037749614   -4.16948166601293    0.83741574255330
H         5.81321812418212   -3.70949675546392   -0.67502780316154
H         4.14122365543467   -4.30033688828217   -0.67818163511669
C         4.09406223843421   -1.47584960421516   -1.25058808200304
O         2.85405765760905   -0.81091178123093   -0.95873453902173
C         5.14918764391187   -0.43127126241169   -1.61002774615446
H         6.12090707825362   -0.90198805425122   -1.72995311833236
H         4.87323628566481    0.04732867476941   -2.54616721767726
H         5.20158673061767    0.33244521255834   -0.84197570877603
C         3.84614664789150   -2.37903506623086   -2.46602853988295
H         3.06782223405681   -3.10391071406231   -2.24424652648323
H         3.50179572689091   -1.76166037286611   -3.29223602182953
H         4.75523798579978   -2.89279607243816   -2.76327012282060
H        -3.26638982944138   -3.62554929008284   -2.99516207133403
H        -5.00523585421984    1.85456472716204    0.82759551463464
C         0.23590000000004   -1.68140000000072    2.96029999999970
C        -1.02589415390953   -2.09284411244135    3.42643238969157
C         1.23755268832456   -1.50820825201378    3.91996099349640
C        -1.29765549401901   -2.20334719051514    4.79787231017060
C        -2.06302400363075   -2.45225522413505    2.54602437391628
C         0.95916545632922   -1.63086735630824    5.26637298064830
H         2.23839325912647   -1.27637411614779    3.59162467096417
C        -0.31232383063378   -1.95932003150343    5.72737993804967
H        -2.28853023779641   -2.49193608839870    5.11811606371919
N        -2.93728316894026   -2.79818174932437    1.88248825742591
Cl        2.22827641221227   -1.38596595477830    6.42428276483827
H        -0.50996356764283   -2.04117902446564    6.78377402589715
