   96
 energy: -145.013045355963 gnorm: 0.000315929354 xtb: 6.4.1 (1a32961)
N        -0.96368115109802   -2.00916267254791   -0.35107891963722
C        -2.19480941388490   -1.49721367788674   -0.52785466546780
C        -3.08305012194789   -2.06324749531105   -1.45068029900533
C        -2.69219874596463   -3.15246165760408   -2.19912026523078
C        -1.41203046607362   -3.66550645091508   -2.01135905471031
C        -0.59610255884056   -3.05964974565917   -1.07824935417234
H         0.40308720391976   -3.42753722728202   -0.89244005957944
H        -1.06323838948765   -4.51542875293700   -2.57472493881854
H        -4.07125160769090   -1.65561693912713   -1.58378829381996
C        -2.53283266868537   -0.32933107296340    0.27955681028613
N        -1.58027967773523    0.11527354246100    1.12514369952599
C        -1.84308841190011    1.17746815449212    1.88316702762042
C        -3.04155802223205    1.86075543376295    1.84736288528119
C        -4.02921209971046    1.42343058473252    0.96988655073323
C        -3.76797148953802    0.32227280946115    0.18242917882292
H        -4.52087099417618   -0.02787247642031   -0.50358666732325
H        -3.20323068613467    2.71036038367734    2.49050474080023
H        -1.04319130304080    1.48309648877145    2.54027891999772
Ir        0.42150000000001   -0.81650000000001    0.91330000000022
B         0.38682200435786    0.59344597693717   -0.61765465621393
O        -0.14130198751444    0.26524492917410   -1.84927410317549
C        -0.24562557217376    1.43801583215061   -2.66608538050303
C         0.16257479387683    1.10219893135365   -4.09791956748495
H         1.12863241811764    0.60889420736523   -4.11393262801459
H         0.20277976660150    2.00753721993812   -4.69801577922556
H        -0.57168051331197    0.42634838884724   -4.52946418523284
C        -1.71831046314687    1.87152760601412   -2.64679407316634
H        -1.88151818945613    2.73107619845037   -3.29007477339362
H        -2.32972758567464    1.04321402915045   -2.99939270498261
H        -2.02674882456671    2.11006204991806   -1.63068938716859
C         0.69383110384571    2.44895227120177   -1.93018194672065
O         0.72308732033494    1.92780490611676   -0.59331332921952
C         2.13364052997698    2.39417144339560   -2.45470175856668
H         2.49838979311070    1.37215615681944   -2.38367515410084
H         2.19737171755087    2.75503271345211   -3.47702896245830
H         2.76091990441390    3.01541566140169   -1.82018506023544
C         0.20671826082719    3.89609107697815   -1.91839263068519
H        -0.73801837330550    3.99184930535745   -1.39213064210639
H         0.94201336149236    4.51537279562533   -1.41026899044695
H         0.09162086946915    4.25620508573425   -2.93744945526636
B         1.59954465397377    0.65239842381621    1.83466764153677
O         2.90219744282960    1.00912015593396    1.60720463152006
C         3.23374873275236    2.21321315593985    2.31533246954231
C         4.58473304056275    2.03270823823444    3.00979904602822
H         4.58756600001719    1.14587438980156    3.63532938213094
H         5.35798176193279    1.91488481024874    2.25465344449912
H         4.81686015289623    2.90559087447740    3.61299915191418
C         3.35299891359987    3.31907917576179    1.26089143861527
H         3.56328786321595    4.28217425734633    1.71577566694803
H         4.16461836738248    3.06260245062964    0.58371548250288
H         2.43468857275817    3.36248573411391    0.68207394433480
C         2.01573102020138    2.40694046494706    3.29179612178555
O         1.05207985203488    1.46286655664236    2.80284271565544
C         1.38592784875267    3.80065800068406    3.25875047255657
H         1.00860052138238    4.02897671698888    2.26730188661253
H         0.55121615094658    3.82485550342001    3.95526300171433
H         2.11131071222408    4.55166280701277    3.55812660931948
C         2.31955898095404    2.04000967795365    4.74954139193570
H         2.71548111590379    1.03166670575533    4.81752117300873
H         3.02431350979110    2.74125996988722    5.18530421426273
H         1.39131190419173    2.07450597349502    5.31526857176841
B         2.27820000000021   -1.33090000000125    0.17409999999887
O         3.13802184918842   -2.25516832743875    0.72920608652488
C         4.40313238333281   -2.22455867685416    0.05433455133185
C         5.34977215918245   -1.40347221545701    0.93654674220954
H         4.91969799109786   -0.41850397400843    1.09754583855856
H         5.43485960028971   -1.89450821067511    1.90344347290392
H         6.33713499176776   -1.32178380124711    0.49322439784219
C         4.94161938471484   -3.64762883838852   -0.08416878610842
H         5.14672877139475   -4.04249488168872    0.90742104625054
H         5.86308089720102   -3.64304347802061   -0.65942790725480
H         4.21826531753703   -4.29934441758469   -0.56280068529969
C         4.05302152167461   -1.50878520654057   -1.29615008431875
O         2.81627267187660   -0.84299980254382   -0.99303758169935
C         5.08074072278091   -0.47814968866845   -1.75891886487686
H         6.05622961448515   -0.94314484521731   -1.87089365599366
H         4.77300047350766   -0.07304790965888   -2.71970568253883
H         5.14206891953052    0.33990844412194   -1.04943055773556
C         3.76977973515275   -2.48942299269526   -2.44184264398876
H         3.02145383903825   -3.21618967092759   -2.13786016437482
H         3.37140013419786   -1.93186802357982   -3.28606102557669
H         4.67655635570955   -3.00070338925535   -2.75018091905679
H        -3.36637968248395   -3.59552670235279   -2.91609070238598
H        -4.97904713158157    1.93198789671065    0.90548066803980
C         0.23590000000022   -1.68139999999959    2.96030000000129
C        -1.07831796993646   -1.98871230724146    3.30018181381299
C         1.15175208286637   -1.62240628819277    4.01308337869044
C        -1.48211990323628   -2.10432878143325    4.63286459869368
H        -1.82070395284127   -2.14605845768437    2.53092563186160
C         0.77218578895276   -1.74391984362741    5.34362329990757
Cl        2.82394315876609   -1.41624017950857    3.65793053598604
C        -0.55206145731010   -1.96419737782261    5.66507451222469
C        -2.83669669906362   -2.37038133548380    4.91610006273683
H         1.51978754446485   -1.67207232811388    6.11651067716785
H        -0.86586791984744   -2.04896166981507    6.69377043997240
N        -3.94630666522167   -2.58365358731052    5.12685562414050
