   95
 energy: -144.811588922894 gnorm: 0.000195732019 xtb: 6.4.1 (1a32961)
N        -1.00039958396074   -2.00814579290994   -0.33495089608939
C        -2.23063612807936   -1.49026026353029   -0.49726351533328
C        -3.13371427904666   -2.05409912694551   -1.40601108303781
C        -2.75694917099086   -3.14780091540451   -2.15664667783942
C        -1.47745486845247   -3.66585591460314   -1.98493567666740
C        -0.64551491363272   -3.06141589034915   -1.06391737152457
H         0.35443199229852   -3.43268820832750   -0.88999360412795
H        -1.13934075862261   -4.51852156879938   -2.55043333025548
H        -4.12178989314554   -1.64304224177800   -1.52726639972480
C        -2.55339194908549   -0.31647291927909    0.31208016180894
N        -1.59061986755826    0.12330559533516    1.14797510009713
C        -1.83480909220996    1.19239587853601    1.90203693167852
C        -3.02873626853548    1.88537098180172    1.87497447231334
C        -4.02846152219083    1.45041407991040    1.01109769418757
C        -3.78429242357353    0.34330480052570    0.22521577687954
H        -4.54720853570292   -0.00364248656059   -0.45092545415124
H        -3.17635498143020    2.73992509215899    2.51485359570842
H        -1.02503577981855    1.49483250144458    2.54917216484540
Ir        0.42149999999991   -0.81650000000010    0.91329999999989
B         0.38763525291307    0.58399039322020   -0.62113021005238
O        -0.12041450035168    0.24358195200722   -1.85620549800173
C        -0.22464006895150    1.41306069153880   -2.68007135016476
C         0.20637948055594    1.07501046482694   -4.10429975960174
H         1.17656387176349    0.58986374569133   -4.10401478930768
H         0.24769883588838    1.97825432411502   -4.70726056345434
H        -0.51595246110063    0.39144026402031   -4.54350457109614
C        -1.70178639005870    1.83099060467739   -2.68028431802856
H        -1.86660099731311    2.68498871779230   -3.33029337505543
H        -2.29978703501717    0.99397757133668   -3.03488216112141
H        -2.02369267160849    2.07199334120227   -1.66901636208084
C         0.69534213909087    2.43498692185998   -1.93462813605111
O         0.70655990984514    1.92045832359210   -0.59349528367148
C         2.14377762105718    2.38676122601885   -2.43410167189044
H         2.51287333768361    1.36689673020564   -2.35542535660578
H         2.22280911788859    2.74737201718823   -3.45535656703348
H         2.75656946479553    3.01128019374053   -1.78895054831326
C         0.19707672432564    3.87807407175384   -1.93803610753772
H        -0.75660447698959    3.96933930148408   -1.42749130475828
H         0.91954946916664    4.50529254817779   -1.42158657424282
H         0.09551687563698    4.23187932319515   -2.96062220379708
B         1.61654323629663    0.62956681193252    1.83971699377494
O         2.89096633208253    1.02345176857707    1.56989626162266
C         3.24548039548252    2.19188977823699    2.32672376918985
C         4.58750968916189    1.94232189138927    3.01718416560659
H         4.56416099803219    1.00971220463476    3.57253684328677
H         5.36399467424955    1.86199750996682    2.26088531825619
H         4.83299389135678    2.76454657045345    3.68249786512581
C         3.40014442008739    3.33439708617083    1.31675731135252
H         3.62104707806271    4.27442384024808    1.81264353246946
H         4.21836657145125    3.08889497877289    0.64408850009126
H         2.49373456916552    3.42058922137512    0.72463047076053
C         2.02831254810266    2.37495542786328    3.31003829187571
O         1.08666205546984    1.38840420608128    2.85952059026754
C         1.34722514746637    3.74441066447562    3.23343964103018
H         0.96375433941151    3.92583671370899    2.23449417871604
H         0.51096972636386    3.75883778911798    3.92868257141737
H         2.04210115785437    4.53146385784764    3.50989270071914
C         2.35234501374362    2.07243469423852    4.77715593389919
H         2.78247083888146    1.08170031520420    4.88282346417024
H         3.03661679183172    2.81200748172701    5.18086582916503
H         1.42866691046256    2.09921184962768    5.35116268845852
B         2.27820000000103   -1.33089999999976    0.17410000000072
O         3.11910687581798   -2.24853022717846    0.75851275364358
C         4.39928866472418   -2.22281019672210    0.10644380701233
C         5.32310268209020   -1.38272371668161    0.99104135586731
H         4.89555844603759   -0.39164143361821    1.10860911972966
H         5.36330111749016   -1.83774294700063    1.97699754000265
H         6.32526743493944   -1.32517281340617    0.57813163415276
C         4.94558874409534   -3.64541493323957    0.00144358950643
H         5.13079464127249   -4.02061207715246    1.00428016991905
H         5.87936179869965   -3.64553490044314   -0.55356008567068
H         4.23626338742508   -4.30900271557575   -0.48205731026292
C         4.07158399612201   -1.53076858345721   -1.26235814301543
O         2.82782728115078   -0.85989778813314   -0.99090554811048
C         5.10454544846441   -0.50579644987120   -1.72459009903326
H         6.08213409343412   -0.97110805540998   -1.81243563987612
H         4.81193352052862   -0.11633957722340   -2.69650583109068
H         5.15322094692760    0.32241973230370   -1.02633369820849
C         3.80639723261986   -2.52928248699460   -2.39655743768404
H         3.05533794240211   -3.25279224148467   -2.09172217488489
H         3.42032854654222   -1.98582017999470   -3.25549033421199
H         4.71868727510025   -3.04360568375399   -2.68226066510291
H        -3.44257583397927   -3.58978396875460   -2.86315645196201
H        -4.97511724301046    1.96545250234801    0.95505445568451
C         0.23590000000005   -1.68140000000413    2.96030000000430
C        -1.07795623046409   -2.02823960058772    3.29376369082205
C         1.12158375504104   -1.56459838057599    4.04666242461294
C        -1.45156264432617   -2.09560049121507    4.62126157249175
H        -1.80753255898860   -2.23936372402488    2.52564701051931
C         2.51841327253147   -1.38181788494750    3.87945757469942
N         0.74866218998435   -1.65221253164656    5.32722252102650
C        -0.51028908609371   -1.88086981191745    5.62208392590767
Br       -3.25791688518393   -2.50572763891379    5.08915547349071
N         3.66164448642216   -1.28219148445248    3.87284763290272
H        -0.76485310514398   -1.91833396141463    6.67166986955423
