   94
 energy: -144.990069629399 gnorm: 0.000182625343 xtb: 6.4.1 (1a32961)
N        -0.92464451769714   -2.03598267576331   -0.36204444416587
C        -2.17436751729315   -1.56898928462439   -0.51142858202337
C        -3.06981596829611   -2.18585956070845   -1.39272149524706
C        -2.66857557157326   -3.28680404059943   -2.11951796874772
C        -1.37074529083909   -3.75803594040271   -1.95330720996505
C        -0.54536036857958   -3.09644892217566   -1.06660766445746
H         0.47077292977007   -3.42601834814026   -0.90201261350821
H        -1.01429481865865   -4.61763801779752   -2.49698477702107
H        -4.07342292344859   -1.81278547639385   -1.50931266077069
C        -2.53594337376576   -0.40414354987112    0.29383751389879
N        -1.58857790325930    0.08158676908285    1.11954253663028
C        -1.88325191616005    1.12495492251227    1.88975854934837
C        -3.11491902342843    1.75002793939061    1.88776069264706
C        -4.09813107264571    1.27238534713759    1.02892260202220
C        -3.80069950190478    0.18988896776031    0.22724266178323
H        -4.55126680182386   -0.19174413731388   -0.44397770836060
H        -3.30119426556712    2.58597148954610    2.54219927789076
H        -1.08230410536151    1.47025093656467    2.52572961652963
Ir        0.42149999999997   -0.81650000000010    0.91329999999995
B         0.42622056541606    0.57553537891697   -0.63443800114307
O        -0.16835843006518    0.26278899737729   -1.84001180194212
C        -0.24421630089462    1.43164043092891   -2.66567800990041
C         0.07563066408781    1.05957941670777   -4.11106274078585
H         1.01090756203109    0.51291440559270   -4.16737420846646
H         0.13668985118194    1.95544512225575   -4.72334048539063
H        -0.71517201011913    0.42215255762431   -4.49887116467443
C        -1.68859646168958    1.94460739289577   -2.58110762206490
H        -1.83631672926616    2.80858516785995   -3.22194411207798
H        -2.35857883834202    1.14789033574863   -2.89816040573562
H        -1.93506194485430    2.20238122823599   -1.55298727852072
C         0.78435292719674    2.39566475237588   -1.98694910106904
O         0.85845728601417    1.87923371860265   -0.64914730822327
C         2.19074656264762    2.26772054995114   -2.58419873436350
H         2.50986296042081    1.23037331374606   -2.51991199807697
H         2.21895236121361    2.61582259209173   -3.61248864689762
H         2.87781775333455    2.86452862674449   -1.98920290246962
C         0.37134412578334    3.86554675331181   -1.95748647551385
H        -0.53772884581429    4.00960790098958   -1.38211262923047
H         1.16262363862367    4.44786646107640   -1.49177659673321
H         0.22019353239536    4.22856349876365   -2.97075524429446
B         1.57846841830795    0.63800933131866    1.86687113866822
O         2.94546719468693    0.75483004731727    1.89324946369513
C         3.31915348655622    2.03208532166872    2.43470976993942
C         4.55821985029828    1.88091622497740    3.31506647168894
H         4.41453387408880    1.11351596833668    4.06828819030676
H         5.40292265428370    1.59251801846069    2.69490556842464
H         4.78738000857743    2.82631715636613    3.79901384681247
C         3.64517475814093    2.93004701115385    1.23588771463904
H         3.92541508196090    3.93065066355548    1.55072037757895
H         4.47203229454074    2.48691783890347    0.68568703086213
H         2.78280272545801    2.96199601699018    0.57506943338305
C         2.02122580577068    2.47807372560041    3.19121351084351
O         1.00761270788921    1.66124154155008    2.58605362919609
C         1.64914464791390    3.94918391110411    3.01702522982039
H         1.43519264554340    4.16813087268222    1.97635785859999
H         0.75692064763620    4.16165083395029    3.60080751685922
H         2.45687651749970    4.58492934845813    3.36880576160493
C         2.04502738883588    2.13615243033815    4.68623141909711
H         2.26804905884235    1.08225643580275    4.82678599953733
H         2.77370835319248    2.74422746109708    5.21312345449131
H         1.05889809856941    2.32586706116008    5.10367602933373
B         2.27819999999935   -1.33089999999992    0.17409999999872
O         3.08391916817115   -2.30643963787135    0.72108512728035
C         4.37725065934327   -2.29131489938225    0.10009941213456
C         5.31847864588920   -1.57747574590424    1.07597434023306
H         4.90665171310524   -0.60009071998364    1.31028240524087
H         5.35984733161804   -2.15382873390221    1.99674895941022
H         6.32085922271426   -1.48679887694906    0.66977207105383
C         4.85672957784491   -3.72719748219862   -0.10996542601796
H         4.97799583934981   -4.20045306549504    0.86081699409528
H         5.81276471264625   -3.73045534363457   -0.62555747028022
H         4.13666574779555   -4.30655394115563   -0.67799715974105
C         4.11977841484417   -1.47573729116925   -1.21609177087116
O         2.87933514596058   -0.80325748474565   -0.94057653540149
C         5.18904740321406   -0.43534260251634   -1.54339877309796
H         6.15866126011086   -0.91254042077712   -1.65371892951752
H         4.93218515080500    0.05803730863624   -2.47724435687950
H         5.23456099407183    0.31713392766174   -0.76403633965831
C         3.88770613202799   -2.36357496530518   -2.44575335904597
H         3.09712427767179   -3.08196293155718   -2.24750603455789
H         3.56760059800072   -1.73448188369453   -3.27274970624583
H         4.79729799923604   -2.88415751257726   -2.72920149523580
H        -3.35007686752563   -3.77123894475471   -2.80198455092932
H        -5.07321843048739    1.73355284470846    0.98962834958733
C         0.23590000000003   -1.68140000000129    2.96030000000054
C        -1.02300156256649   -2.09521661863478    3.38931891564182
C         1.18276959557689   -1.52891643562207    3.98310518118977
F        -2.00330804226806   -2.38226856990656    2.49054047208712
C        -1.30494390641462   -2.22821396923050    4.74162464188085
C         0.81676429050417   -1.69942190907720    5.30234660493815
H         2.19727681330368   -1.27839624554426    3.71958757193617
Cl       -2.89652991635827   -2.67865619851354    5.26022468216859
N        -0.41380906247212   -2.02857565339910    5.68651130843190
H         1.51921421694342   -1.57410630286125    6.11410633088036
