   96
 energy: -142.892572051519 gnorm: 0.000216211951 xtb: 6.4.1 (1a32961)
N        -0.90835729515563   -2.04845912588425   -0.35359050044015
C        -2.15849594554359   -1.58474779879996   -0.53396294269985
C        -3.03093431696314   -2.20157036960936   -1.43961375339631
C        -2.60755460720142   -3.29371514127146   -2.16514289899028
C        -1.30878621819596   -3.75754162353825   -1.97337300665828
C        -0.50889411378478   -3.10195721828694   -1.06095459591867
H         0.50411897744996   -3.42932467329380   -0.87523194426458
H        -0.93472401482741   -4.60871715439415   -2.51851221943595
H        -4.03346481360219   -1.83145440553650   -1.57633841988956
C        -2.53519354504747   -0.41712876889986    0.25489451882080
N        -1.59923209123586    0.07033784697760    1.09618780917543
C        -1.89956612118216    1.13314401485804    1.83880196570625
C        -3.12110411801931    1.77432460448171    1.79434005218206
C        -4.09320893096529    1.29088812269752    0.92348589192747
C        -3.79270550892409    0.18962457903403    0.15055886542508
H        -4.53257355789980   -0.19583811824435   -0.53076621915208
H        -3.31124530384729    2.62762018275665    2.42487773133605
H        -1.11011862293410    1.47923090823811    2.48804059172837
Ir        0.42150000000020   -0.81649999999987    0.91329999999991
B         0.41698123377754    0.57280029362252   -0.63707656062327
O        -0.19158309272325    0.25698114244770   -1.83678703939858
C        -0.28549287048696    1.42379821309805   -2.66091482193888
C         0.01716328170003    1.05343807057475   -4.11061016777081
H         0.95600755229937    0.51431561217217   -4.18012212759694
H         0.06223126535886    1.94924759803948   -4.72454943835733
H        -0.77382838138650    0.40907528044906   -4.48684156942697
C        -1.73188307991490    1.92899603278060   -2.55939040637981
H        -1.89271228367358    2.79051796491918   -3.20050882632798
H        -2.40167999552690    1.12795434393671   -2.86633806254495
H        -1.96749487663889    2.18891046238413   -1.52913745448430
C         0.74507467964106    2.39479393863106   -1.99602528696000
O         0.83842698325166    1.88181051017069   -0.65958878386568
C         2.14477209087914    2.27446177496701   -2.61066976137634
H         2.46883150205813    1.23811678072150   -2.55450855647550
H         2.15961066382339    2.62651433528223   -3.63803719913373
H         2.83647959699110    2.87166292338906   -2.02123412103347
C         0.32372661944727    3.86246526953464   -1.96529113878980
H        -0.57723099411087    4.00303436733255   -1.37613498391728
H         1.11848491020618    4.45164942361646   -1.51408895503402
H         0.15416158758362    4.22114363454317   -2.97731856260358
B         1.55379411036622    0.65050720018129    1.87283319565994
O         2.92283122978013    0.78901279662698    1.89172076215569
C         3.27967202754925    2.06896516718923    2.43512721823825
C         4.53238448457933    1.93621264006295    3.29886145543845
H         4.41072792027747    1.16466236334156    4.05142387507712
H         5.37339844335418    1.66325904674770    2.66683080563538
H         4.75206883292285    2.88442821145011    3.78191670546302
C         3.57361646512239    2.98162064028260    1.23883011765074
H         3.83969669233794    3.98511398039696    1.55719619791842
H         4.40142186112801    2.55762436416867    0.67492997077303
H         2.70265391572491    3.00302389774710    0.58868642858290
C         1.98366731487424    2.48494945389723    3.20989480462544
O         0.97620762061457    1.66639236370127    2.59976111542248
C         1.59353643323922    3.95483287782229    3.06864525853192
H         1.36758095319605    4.19270525764050    2.03453781946831
H         0.70476413291934    4.14667188494907    3.66498800527356
H         2.39780497553363    4.59252737964901    3.42536098113174
C         2.02592502841998    2.11249360650443    4.69745584559958
H         2.25825426302207    1.05734605104164    4.80986657717222
H         2.75705886286738    2.71241364894464    5.23044559122737
H         1.04339030749616    2.28812937092721    5.13005155858500
B         2.27820000000068   -1.33089999999946    0.17410000000060
O         3.12220918956742   -2.26777455020684    0.73252652509006
C         4.40184882693013   -2.23527250834995    0.08575366435998
C         5.34153190829885   -1.45865477614706    1.01429557235037
H         4.90832374806240   -0.48383421064317    1.21832574145232
H         5.41852683635890   -1.99637975397693    1.95576018701763
H         6.33237989554502   -1.35653785953524    0.58318076463340
C         4.92362862536925   -3.66141315912553   -0.08668572682466
H         5.09856491087444   -4.09217081094086    0.89534736790796
H         5.85936080863847   -3.65256178834627   -0.63832833415917
H         4.20375414762638   -4.28605085312499   -0.60458015979653
C         4.09401273660238   -1.47520904523300   -1.25213705871888
O         2.84568661409299   -0.82257179030957   -0.96962344799617
C         5.13157385778077   -0.42510316573979   -1.64485994335278
H         6.10968051140911   -0.88440893382490   -1.75717093028871
H         4.84446122076555    0.02376482811471   -2.59237807225662
H         5.17650111176852    0.36001637873642   -0.89821099158517
C         3.85362732810789   -2.41461896330111   -2.44146548503921
H         3.09058707617494   -3.14725908247062   -2.19384723337130
H         3.49181650902939   -1.82628504418042   -3.28124995488078
H         4.76966801802580   -2.91963907755181   -2.73213974719081
H        -3.27020099417576   -3.77685747862539   -2.86680483794959
H        -5.06050219516424    1.76470915957225    0.85317142774631
C         0.23589999999986   -1.68140000000026    2.96029999999936
C        -1.05408541409994   -1.82281345728834    3.52305063120928
C         1.10497458638860   -1.79105353267604    4.02634362665981
C        -0.88971493837589   -1.95603319274837    4.88742834948238
H        -2.00014737800824   -1.82738767260445    3.01885633674298
O         0.43555605223509   -1.93696617202352    5.19233982553913
C         2.58704554275792   -1.83305831661767    4.07207295260201
C        -1.85120735581296   -2.09127279004710    5.88563891388104
H         2.98663936266955   -1.20655686845878    3.28005076700841
H         2.93133728204864   -2.85250785121275    3.90008687597060
H         2.94017011071117   -1.51051898031861    5.04896983965406
N        -2.68207584422745   -2.20315862891717    6.67566518098800
