   93
 energy: -142.483369343214 gnorm: 0.000228789993 xtb: 6.4.1 (1a32961)
N        -0.93883655826235   -2.03162040380100   -0.35320540232996
C        -2.17939971620862   -1.54777964709690   -0.52071176144167
C        -3.07948606232724   -2.16742468454883   -1.39383585153666
C        -2.69176585663925   -3.28967303414103   -2.09529872355912
C        -1.40239453955474   -3.77667610335872   -1.91392971351840
C        -0.57160590574898   -3.11109596093693   -1.03519665811932
H         0.43850948308038   -3.45289535191617   -0.85826107371261
H        -1.05554705733243   -4.65185527080746   -2.43864739738861
H        -4.07760558809199   -1.78352583801103   -1.51849102885695
C        -2.52763794698005   -0.36197796076592    0.26030824860675
N        -1.58411950559321    0.11158513616789    1.09648659636067
C        -1.86816925389538    1.17052703926828    1.84974732472711
C        -3.08524161526072    1.82254925595999    1.81960790327199
C        -4.06166396371591    1.35947560528970    0.94584562768073
C        -3.77481890311560    0.26194391711843    0.16065189709640
H        -4.52009793008827   -0.10943031608409   -0.52155057840663
H        -3.26385972538954    2.66988527479653    2.46137926955753
H        -1.06901156924334    1.50726170941018    2.49274010424341
Ir        0.42150000000002   -0.81650000000002    0.91329999999996
B         0.45288024752936    0.56004249839465   -0.64545721365424
O        -0.11045714621106    0.22361252875525   -1.85700695492331
C        -0.18359620729828    1.38076332319452   -2.70033182411450
C         0.18392376908318    0.99254857812805   -4.13008065675826
H         1.12745095371957    0.45762055066077   -4.15031522574564
H         0.25093197552143    1.87975123171374   -4.75402582066411
H        -0.58619297587730    0.33822105919137   -4.53101963337803
C        -1.63870342512989    1.86794572737294   -2.66453007837160
H        -1.78289984560654    2.72088915699287   -3.32074552328664
H        -2.28469979641620    1.05525730642325   -2.99061642490387
H        -1.92036666245023    2.13404603977907   -1.64765208099481
C         0.80915144384909    2.37250827210063   -2.00647819768355
O         0.86582126289243    1.86848036995809   -0.66188796459279
C         2.23066868347831    2.27227287816706   -2.57186258788559
H         2.57373489703308    1.24418702546132   -2.48684892900800
H         2.27174006496304    2.60731476237638   -3.60395831114145
H         2.89028314007984    2.89422424791517   -1.97149072808245
C         0.36276853260968    3.83273243184204   -1.99668812932838
H        -0.56292446882555    3.95988864617184   -1.44435962029850
H         1.12920331562006    4.43564507398076   -1.51603857771132
H         0.22819882784618    4.18562015827791   -3.01574603462227
B         1.59091045219942    0.61908896444286    1.89023979909084
O         2.95947984238157    0.71229196566545    1.93378353327594
C         3.34671889845344    1.99288573072166    2.45897286046231
C         4.57776311704155    1.83962157017142    3.34999326064659
H         4.42016045709049    1.08921774865692    4.11763341989800
H         5.42235096963585    1.52780258261403    2.74107586417527
H         4.81731571293525    2.79024219232774    3.81831516215206
C         3.69219991172174    2.86732400388206    1.24844714409150
H         3.98377045513831    3.86879076295825    1.54977560775880
H         4.51679899545861    2.40489454891480    0.71100880749330
H         2.83514499679846    2.90023870441645    0.58065592890928
C         2.04957028703797    2.46786203502397    3.19904502785426
O         1.02864981083791    1.65336636237988    2.60029128068500
C         1.69650145778860    3.93962124142731    2.99491768687299
H         1.48648373693374    4.13923271162091    1.94951364420464
H         0.80662441758273    4.17608864419250    3.57304398732928
H         2.51224761244356    4.57161455717349    3.33444617671963
C         2.05975269984764    2.15507051141048    4.70034645118866
H         2.27553204118934    1.10337701500468    4.86783303957042
H         2.79164416001083    2.76468677288804    5.22077631594374
H         1.07407740052536    2.36525092706744    5.10908032480782
B         2.27820000000064   -1.33090000000029    0.17409999999970
O         3.05719804407512   -2.35060455335530    0.67870968182881
C         4.36210141824900   -2.32278702085100    0.08051687435962
C         5.29555153747725   -1.67494952552901    1.10873128406281
H         4.89656057409613   -0.70262536558988    1.38366787412846
H         5.31034047653914   -2.29672591510856    2.00051540248477
H         6.30705728733580   -1.58201752395215    0.72649334465376
C         4.82570475621447   -3.75184412944437   -0.19826932999288
H         4.92492054697195   -4.27860554639646    0.74718105616582
H         5.79036905023073   -3.74002337509710   -0.69741555903029
H         4.10810823692424   -4.28945391897343   -0.80888612958271
C         4.13901458233016   -1.43480020440454   -1.19381245139932
O         2.90763463520272   -0.75328360690180   -0.89849798528790
C         5.23339618861841   -0.40137884001488   -1.45263891504680
H         6.19449749199740   -0.89289202086669   -1.57385486987076
H         5.00084505041493    0.14467701829870   -2.36327870265062
H         5.28321185509250    0.30888109203263   -0.63487733491142
C         3.90569554666324   -2.25231298799318   -2.47087114112670
H         3.09562314462886   -2.96088301169218   -2.32130537934397
H         3.61292503612868   -1.57342661093092   -3.26814153380529
H         4.80762829591320   -2.77835415883546   -2.76800631715164
H        -3.37799331757832   -3.77858926762103   -2.76958648849539
H        -5.02389184000734    1.84398008842781    0.88156502463477
C         0.23589999999962   -1.68140000000025    2.96030000000074
C        -0.99314378004958   -2.02871985490955    3.47251670904925
C         1.20391051541994   -1.55470664317805    3.98670070682557
S        -1.00144687983463   -2.13012143875450    5.23996477343569
C        -2.16353584396189   -2.32508953153633    2.79279063341308
C         0.68622762279497   -1.74228581192125    5.22884332933191
H         2.23705254550296   -1.33352275649448    3.79096320286807
N        -3.14049753304263   -2.59248404360032    2.24176233402164
Br        1.62053009758029   -1.61446304527506    6.85644225090147
