   93
 energy: -142.478939863557 gnorm: 0.000231941323 xtb: 6.4.1 (1a32961)
N        -0.95948277915141   -2.00648698076448   -0.36017616098530
C        -2.18248065687065   -1.48312085544083   -0.55728833575602
C        -3.05620490274454   -2.03203917248774   -1.50333611430094
C        -2.65968444388170   -3.11860386697841   -2.25321021291653
C        -1.38887918300751   -3.64495650920039   -2.04322706582118
C        -0.58622339637803   -3.05393864970534   -1.08906659498269
H         0.40640152063013   -3.43124409089814   -0.88848182358527
H        -1.03558959305418   -4.49261220845905   -2.60704914449611
H        -4.03629177089020   -1.61201639948196   -1.65603956870877
C        -2.52720554971394   -0.31841967509420    0.25313726303510
N        -1.57755553119029    0.12975047162105    1.10021675999159
C        -1.84381664472017    1.19244577271757    1.85630649687260
C        -3.04649557035625    1.86893979917674    1.82305886162154
C        -4.03342004048507    1.42437156835451    0.94892796698290
C        -3.76667255578062    0.32502785993979    0.16010854081811
H        -4.51950912294321   -0.03076355154421   -0.52290253869312
H        -3.21070333717733    2.71878865155223    2.46512805979566
H        -1.04472189366796    1.50455717981932    2.51186044251414
Ir        0.42149999999992   -0.81650000000002    0.91329999999990
B         0.41496331684530    0.57546964883131   -0.63077145392127
O        -0.12301886859006    0.25784012674670   -1.85930158062091
C        -0.20841228749913    1.43418969475223   -2.67428878966988
C         0.19458118888975    1.09337387903925   -4.10622277297763
H         1.15114250465303    0.58194367391193   -4.12192598950804
H         0.25241434780468    1.99880616579357   -4.70453724237824
H        -0.55189154592420    0.43235795573461   -4.53978362052527
C        -1.67406815420274    1.89046291770902   -2.65406924636722
H        -1.82318635173451    2.75466109687510   -3.29439051296642
H        -2.29825940036953    1.07327439483523   -3.01022893637786
H        -1.97969888092306    2.13080723063680   -1.63747317902731
C         0.74761332329635    2.42911737167499   -1.93707285708545
O         0.77359684261547    1.90215946322503   -0.60150822964929
C         2.18497669733312    2.35659625540451   -2.46515764046178
H         2.53478704847349    1.32876889156736   -2.40395295303567
H         2.25155288799992    2.72451448386697   -3.48469570534066
H         2.82292109848089    2.96345765010120   -1.82738667108707
C         0.28008378458510    3.88255341136308   -1.91720479293838
H        -0.66021788128314    3.98958690564837   -1.38499854878351
H         1.02670233784866    4.49037605441333   -1.41179655421285
H         0.16358886274944    4.24767644785078   -2.93423008606591
B         1.59802661646767    0.63777501832445    1.85785654866763
O         2.89442523307039    0.99867762384644    1.63234326075851
C         3.22810903502341    2.19965478704328    2.34652371280228
C         4.56252802761414    1.99926808531748    3.06712494669080
H         4.54532634880051    1.10715991550592    3.68474811429338
H         5.34811717866869    1.87640076207455    2.32632304462438
H         4.79374092872210    2.86539135247294    3.67988808070238
C         3.38654249770871    3.30091790714005    1.29257543895710
H         3.59161410570211    4.26328666640380    1.75103136560535
H         4.21642472707100    3.03585027586870    0.64177287098493
H         2.48729673389511    3.35210864077151    0.68530191455915
C         1.99268511952556    2.41237912134076    3.29938250500161
O         1.04777951703930    1.43381074111402    2.83776221267294
C         1.33603016652898    3.79099247018739    3.19545451010115
H         0.97176780501383    3.96770729823186    2.18844541672917
H         0.48884499809803    3.82895607544265    3.87662591071783
H         2.04015101341898    4.56936070224236    3.47377976271632
C         2.28111977871464    2.12119344118839    4.77654035725470
H         2.71003079925913    1.13290140304160    4.90521247435097
H         2.95884151616614    2.86204531104701    5.18852789030848
H         1.34413698963669    2.15839427993252    5.32812095544025
B         2.27819999999965   -1.33089999999914    0.17410000000074
O         3.15579481136444   -2.19003325950786    0.79489844221722
C         4.41656926801707   -2.19473477933383    0.10837897863726
C         5.36166624249820   -1.30510002186021    0.92077353473117
H         4.92010065436887   -0.31814585727110    1.02216091578640
H         5.46078752821759   -1.72747514522757    1.91754694567447
H         6.34221875158575   -1.24241821609563    0.46018510864659
C         4.96730970965945   -3.61906265902596    0.06902764654435
H         5.17891660087069   -3.93812163508333    1.08598950109598
H         5.88710472135983   -3.64678065426152   -0.50793417197996
H         4.24944565292958   -4.31076599193419   -0.35921744990585
C         4.04708451029147   -1.58295991383438   -1.28825540389457
O         2.79741591096250   -0.91896875244770   -1.02770625557390
C         5.05297844107863   -0.56876664664516   -1.82810857450757
H         6.03423202863477   -1.02570499142707   -1.91929607646535
H         4.73031016124541   -0.23334683079102   -2.81068596850212
H         5.10931697562775    0.29482809606165   -1.17446951357912
C         3.77673970906624   -2.64531649527302   -2.36167244399774
H         3.04295442618169   -3.36271596961588   -2.00472004506003
H         3.36627928753697   -2.15486128187310   -3.24101625313292
H         4.69136090087760   -3.16105935235998   -2.63731198826275
H        -3.32242102351731   -3.54825946921589   -2.98864612114066
H        -4.98690633548133    1.92618336461040    0.88764756801544
C         0.23590000000012   -1.68140000000039    2.96030000000215
C        -1.07851523144273   -1.91093769355333    3.42539078096094
C         1.10883754975212   -1.70967445922381    4.01025117038263
C        -1.18354914441307   -2.04365093538209    4.79100012297971
H        -1.94130582629482   -1.98118062755332    2.78631352621310
S         0.36579111490053   -1.93413973037098    5.57096851798983
Br        2.96851645122065   -1.60268583454990    3.93910552338343
C        -2.35335623883545   -2.24302866492189    5.51826223226304
N        -3.33411308152623   -2.40571252649178    6.09779299976756
