  100
 energy: -145.441271495097 gnorm: 0.000206230481 xtb: 6.4.1 (1a32961)
N        -0.89099787411518   -2.03225484590834   -0.37332234455664
C        -2.14225738868350   -1.56783187518161   -0.55511680290602
C        -3.00793028353631   -2.17357982177934   -1.47577091167179
C        -2.57855565744244   -3.25277677320876   -2.21518866198758
C        -1.27900811667831   -3.71746071158058   -2.02183494723801
C        -0.48701856286987   -3.07530251826819   -1.09451022186218
H         0.52519028121221   -3.40491688247124   -0.90703459613701
H        -0.90027283896585   -4.55956475901686   -2.57800934881461
H        -4.01042937419839   -1.80248452856500   -1.61231908047161
C        -2.52222108559035   -0.41310653340955    0.24559185320902
N        -1.58662140092873    0.06448428576523    1.09509441390554
C        -1.89100619954830    1.11761382171699    1.85135148092440
C        -3.11171590918608    1.75831099624088    1.81180870166810
C        -4.08280570231516    1.28599541702214    0.93161477150605
C        -3.78006098234565    0.19556780731726    0.14606926190867
H        -4.51799431362648   -0.18266541486816   -0.54185557457510
H        -3.30521021577921    2.60252100027646    2.45372080130031
H        -1.10404437808126    1.45329339147442    2.50900114698998
Ir        0.42150000000003   -0.81650000000001    0.91330000000006
B         0.40333126188811    0.60447318535179   -0.61409142204078
O        -0.21062143585602    0.30199405661931   -1.81589347676316
C        -0.32052562900038    1.47869632835502   -2.62209635601820
C        -0.02629418579090    1.13177501628879   -4.07953822358794
H         0.91486251422030    0.59858763891833   -4.16400469925642
H         0.00953483349621    2.03689520900106   -4.68046021250602
H        -0.81655000852266    0.48865935453311   -4.45978899061862
C        -1.76994885934322    1.97207845113880   -2.50394980250520
H        -1.94127249789245    2.84121139534082   -3.13214270823785
H        -2.43662482582617    1.17077700540760   -2.81741109310958
H        -2.00108669556282    2.21623369140430   -1.46876476095904
C         0.70684144874632    2.44875195020965   -1.95152377284305
O         0.81408228520425    1.91892795910407   -0.62367974641275
C         2.10246004562318    2.34883870849576   -2.57961634015940
H         2.43585459351775    1.31455712848031   -2.54052264624310
H         2.10511575133268    2.71409746089164   -3.60255511506823
H         2.79458981407594    2.94449753204118   -1.98898584328493
C         0.27402418643593    3.91260677609543   -1.89788139338378
H        -0.62312482983693    4.03784728549246   -1.29933647038139
H         1.06772756080340    4.50235923982542   -1.44540772737910
H         0.09289523704194    4.28335854203105   -2.90365038742020
B         1.55730078669457    0.64621321284494    1.88071491562053
O         2.92524706038411    0.80066195078832    1.86612984726691
C         3.28394035263506    2.07850236560061    2.40976311392942
C         4.55555545543326    1.94915147313297    3.24673590041161
H         4.45865717335770    1.16247668055395    3.98680187128501
H         5.38736791152677    1.69786488755286    2.59394900606795
H         4.77286260510485    2.89188452932609    3.74155761035424
C         3.54883795813800    3.00292244379935    1.21564856701179
H         3.81646688452066    4.00532509047595    1.53665656009231
H         4.36674898745557    2.58795782711060    0.63083085426703
H         2.66450876645004    3.02517845850522    0.58413781544551
C         2.00131423443341    2.48160186862216    3.21375421896155
O         0.98808351615713    1.65664514646028    2.62527839396236
C         1.59658187165015    3.94910429593908    3.08727209732423
H         1.34729126950543    4.18965344388999    2.05919440631595
H         0.71814455865905    4.13066838070874    3.70190991096904
H         2.40240009025287    4.59261334633827    3.43017737714244
C         2.08028111123177    2.10512035018727    4.69878320165676
H         2.31637257881670    1.04960498733433    4.79453282891103
H         2.82394259316219    2.70304220327210    5.21658329206415
H         1.10798837308602    2.27701480308071    5.15462836385258
B         2.27820000000016   -1.33090000000069    0.17410000000001
O         3.14713273843753   -2.25572580102886    0.71771404814121
C         4.41332730104745   -2.21064673958456    0.04688768867281
C         5.36424811856502   -1.42997314825685    0.96094085388743
H         4.92285983575122   -0.46275668687625    1.18366160382389
H         5.47005700561188   -1.97532961808517    1.89528680395376
H         6.34370460882395   -1.31109787947521    0.50862316789178
C         4.94256320077409   -3.63248676202043   -0.13957485103566
H         5.13464982325451   -4.06645852600292    0.83784069695487
H         5.86973600103261   -3.61450832058916   -0.70538889904892
H         4.21921050399163   -4.25979857442387   -0.64942300609048
C         4.07494867071992   -1.44932769167874   -1.28295072863540
O         2.82163376797704   -0.81781168391849   -0.98109838900723
C         5.09089274073107   -0.38069974176188   -1.68370755426934
H         6.07476002325396   -0.82327315536457   -1.81245005105745
H         4.78346200767740    0.06890853432214   -2.62458396094737
H         5.13292317948031    0.40094434449220   -0.93312379505318
C         3.83493051348215   -2.38553952752123   -2.47514405341984
H         3.08656089220813   -3.13187465193008   -2.22348324329794
H         3.45300906620756   -1.79756071703934   -3.30637949603281
H         4.75513125660108   -2.87404768226217   -2.78079565996845
H        -3.23553839202168   -3.72630295238080   -2.92888704543208
H        -5.05027817991515    1.76050325750180    0.86561038077386
C         0.23590000000063   -1.68140000000001    2.96030000000071
C        -1.05474425806001   -1.82905846858139    3.49012376244755
C         1.11586510695738   -1.83753052572445    4.02790515565396
C        -0.93215369846302   -2.01334196014622    4.86506484243672
H        -1.99176575668142   -1.80861338294863    2.96678314903769
N         0.40690367071069   -2.01791514360309    5.17081247971539
C         2.59954167734287   -1.88741937654519    4.02886444325705
C        -1.94187630851060   -2.16936711551835    5.80282132187405
C         0.96022026802653   -2.21356738330169    6.48295697114793
H         2.95870958650364   -1.62397704247653    3.03915296208565
H         2.94198075038562   -2.89234037202288    4.27880431597698
H         3.01764447933686   -1.20085411685649    4.76375601843225
N        -2.80123256898859   -2.29662107662250    6.56322720219046
H         0.14895879444737   -2.36144274018887    7.19391825058916
H         1.54373789334708   -1.34188964954593    6.78575748141150
H         1.60918182815103   -3.09129674109320    6.49361062175390
