   96
 energy: -137.732216730240 gnorm: 0.000231669280 xtb: 6.4.0 (f63f532)
N        -0.88747465303213   -2.02560587136772   -0.37697321742921
C        -2.14842908194904   -1.57423660765434   -0.53677532129939
C        -3.02172675449063   -2.18612742330596   -1.44679922247937
C        -2.59266603043824   -3.25675323216661   -2.19779315939539
C        -1.28415527063549   -3.70791516570394   -2.02682051894875
C        -0.48444216865846   -3.06123806511318   -1.11008174154810
H         0.53402665085051   -3.38144252180475   -0.93919931172146
H        -0.90542410013510   -4.54411413748680   -2.59213494985270
H        -4.03090377096902   -1.82610203378848   -1.56383104797584
C        -2.52777058093339   -0.43385282878119    0.28142702464134
N        -1.58854211084408    0.03179487499089    1.13570099966509
C        -1.89616146329454    1.06606415815142    1.91674752257760
C        -3.11916296343819    1.70238209490718    1.89436766610433
C        -4.09110165772918    1.24736399005943    1.00470618809396
C        -3.78757428707393    0.17423189280741    0.19701959820353
H        -4.52479443811381   -0.19112721011167   -0.49895856298699
H        -3.31399111521098    2.53249018728019    2.55422304702921
H        -1.10773541534492    1.39096677257877    2.57786963758730
Ir        0.42150000000001   -0.81650000000007    0.91329999999992
B         0.42442132741692    0.61986839884565   -0.59959815376184
O        -0.20539861002315    0.33200514459586   -1.79956729082972
C        -0.29050990961874    1.51047938731126   -2.60488401440058
C        -0.02646643253160    1.15630029169670   -4.06646722242132
H         0.89726560741198    0.59536582423553   -4.16358094246360
H         0.02906454264257    2.06066150946164   -4.66718236936821
H        -0.84038733275663    0.53747191382031   -4.43715563182683
C        -1.72282378636062    2.04697553290028   -2.46510693118463
H        -1.87897882852000    2.92022036929812   -3.09166211896353
H        -2.41756013635317    1.26474981744425   -2.76553659163978
H        -1.92863315395061    2.29763699883464   -1.42613046106354
C         0.77384840479144    2.44893668943126   -1.94824944985901
O         0.87398656867048    1.92248449365758   -0.61908656646570
C         2.16064853981765    2.29918559940404   -2.58640471226161
H         2.45832198255325    1.25406036929425   -2.54635745124858
H         2.17008429639940    2.66239592510420   -3.61021352933549
H         2.87687594850945    2.87025025510770   -2.00003536917434
C         0.39040862385209    3.92681647578322   -1.90081274944551
H        -0.49656258506188    4.08516141580453   -1.29523097189733
H         1.20739065439165    4.49248587199653   -1.45918654241150
H         0.21261873637242    4.29670568225096   -2.90761491457814
B         1.56294858652741    0.62226940134473    1.90577220145243
O         2.93725071902443    0.71953248037819    1.96238256622212
C         3.31688810182094    1.99464646315436    2.49738078236566
C         4.55070976650332    1.84298475412116    3.38578631321009
H         4.40317909149452    1.06732182751433    4.12959193859428
H         5.40169905375331    1.56305293142437    2.77019915168059
H         4.77190713113238    2.78524499640779    3.88012059459403
C         3.65299377365503    2.88954927042837    1.29806088389617
H         3.94484525739707    3.88764458708153    1.61176070159338
H         4.47396108299510    2.43677596074405    0.74642603772405
H         2.79053553416241    2.93047740182083    0.63744749954908
C         2.01830975872263    2.45087382292482    3.24274277681398
O         1.00073865540425    1.67106444570103    2.60407210484920
C         1.68420743690106    3.93493210138164    3.10453159371377
H         1.48723781443227    4.18613657595637    2.06773819719924
H         0.79086065626905    4.15525889969488    3.68384403837816
H         2.50443587892105    4.54104936155028    3.48011179356046
C         2.01500770233044    2.06534709502811    4.72791930819021
H         2.21797440141968    1.00306732388612    4.82994920826312
H         2.74752311603484    2.64183013078422    5.28467763747905
H         1.02541188303612    2.26029990430185    5.13477194820313
B         2.27820000000043   -1.33089999999967    0.17409999999973
O         3.09123768127514   -2.32997298990766    0.67454619954700
C         4.37870487450167   -2.28588169358385    0.04876578278066
C         5.31804373639017   -1.58009914479847    1.03316491235192
H         4.89437482053744   -0.61280587084728    1.28837233928522
H         5.37017793387862   -2.17299915131902    1.94277911499482
H         6.31741639364655   -1.46946255491192    0.62363946689870
C         4.87829176551841   -3.70946420476516   -0.19745435980736
H         5.01868336387680   -4.20168318001407    0.76125690617253
H         5.82780929398171   -3.68606001895087   -0.72508247730503
H         4.16017854986445   -4.28754379837230   -0.76937345170466
C         4.10457108981833   -1.44393795288805   -1.24566528789220
O         2.87617788935083   -0.77107305060411   -0.93448007051012
C         5.17743008110012   -0.40730111650579   -1.57500327036712
H         6.14174034223228   -0.89040167009401   -1.70693114308482
H         4.91023299388005    0.10202820981865   -2.49760232803960
H         5.24090145920992    0.33382497296708   -0.78584535901052
C         3.84572151141229   -2.31014159980260   -2.48645390088593
H         3.06161992345801   -3.03396427766555   -2.28144718790822
H         3.50335378169085   -1.66703534270658   -3.29389421708003
H         4.74936223237232   -2.82342438254535   -2.80137656453015
H        -3.25526884922599   -3.73579083830658   -2.90275886662347
H        -5.05911595530615    1.72248292055507    0.94900779467053
C         0.23589999999913   -1.68139999999962    2.96030000000039
C        -1.02595423335237   -1.99538800686414    3.52072164784213
C         1.11386750103558   -1.62639769896570    4.01793283545132
C        -0.86665253281756   -2.06970561386059    4.88002891356135
H        -1.94909537354123   -2.14669234287602    2.99271927185158
N         0.43972744917428   -1.84965961703081    5.17851772083172
H         2.17092605453137   -1.45182883103987    4.00644678165424
H        -1.58715733162038   -2.27139729839445    5.64965697870409
C         1.00584780856705   -1.81731772548802    6.49869818349868
H         0.45403029214593   -2.49218182501573    7.15238283146017
H         0.96209843231030   -0.80816851262648    6.91862574020271
H         2.04727622925159   -2.13404639439894    6.45623836638132
