   96
 energy: -137.733052418381 gnorm: 0.000750465548 xtb: 6.4.0 (f63f532)
N        -0.95690099796325   -1.96963083111972   -0.41445080554564
C        -2.15965836234688   -1.39814990004946   -0.62896336564992
C        -2.98777088722633   -1.83418717630752   -1.67005706344875
C        -2.57602368832150   -2.86186876776078   -2.48987403525828
C        -1.33282734569756   -3.44508931414267   -2.25480142060909
C        -0.57021254294037   -2.96131641299893   -1.21318698274009
H         0.39817994754295   -3.38678919690892   -0.98854284584947
H        -0.97169552195148   -4.25383997123241   -2.86910713619271
H        -3.94299284823912   -1.36634926996455   -1.84374856745863
C        -2.52342416990979   -0.31398344760076    0.27391822513474
N        -1.58423776020298    0.06042900906573    1.17119645882493
C        -1.87674033874226    1.03088208499835    2.03425201141661
C        -3.08687555987174    1.69405290463647    2.05341437094703
C        -4.05871120308164    1.33252804041215    1.12344161560909
C        -3.77118710413625    0.32018955691597    0.23309365098450
H        -4.51499318648456    0.01876988970029   -0.48567490065505
H        -3.27035257307388    2.47078304007657    2.77787879621487
H        -1.08991167753192    1.28308592494673    2.72806948504567
Ir        0.42149999999986   -0.81650000000007    0.91330000000003
B         0.46338910895756    0.56303119424327   -0.65677844570259
O        -0.14889300964798    0.22915542961358   -1.85300926492516
C        -0.20380258298339    1.36773947752964   -2.71636992386169
C         0.09036584548923    0.93378728623749   -4.15038651554879
H         1.01610475087734    0.36986908651364   -4.19785158172188
H         0.15594699768250    1.80245963654396   -4.80050663298730
H        -0.71581414369426    0.29249221998086   -4.49935388876741
C        -1.63521564624618    1.91832290896676   -2.63987776308588
H        -1.76582597799754    2.76892671407103   -3.30214856081837
H        -2.32564295442366    1.12981323116609   -2.93323844791402
H        -1.86937689480465    2.20787741764650   -1.61737896670201
C         0.85343282911081    2.32923706751500   -2.08040103112664
O         0.93442955854897    1.85433153521384   -0.72936862284992
C         2.24698327977258    2.15649959232145   -2.69705597706670
H         2.55252311823772    1.11806677309556   -2.59519086149143
H         2.26095212058592    2.46099803130946   -3.73973549358655
H         2.95488085142984    2.76688471755150   -2.14115392236190
C         0.47070362700400    3.80803667648811   -2.09075666273839
H        -0.42567142360071    3.98792383883291   -1.50538830688482
H         1.28091741957383    4.38772175928401   -1.65483586615338
H         0.31090390850071    4.14394310088568   -3.11226093992205
B         1.59053793797265    0.65652838479296    1.82318973828113
O         2.96195456614199    0.73217571727349    1.90158919767880
C         3.35645047925315    2.04627476326306    2.32037893673298
C         4.54935400804767    1.95260028962635    3.27066071117653
H         4.34143630498752    1.27958161956736    4.09585250704341
H         5.40777753440769    1.56525387807107    2.72749469557501
H         4.79607684340813    2.93777560760854    3.65753845831928
C         3.77063717470581    2.79887344592745    1.05033948700715
H         4.07681593794662    3.81754291677916    1.26935136809931
H         4.60215957730259    2.27041147757574    0.58964741942449
H         2.93931922511601    2.78802776642713    0.35052742199578
C         2.04281803256650    2.61483808025485    2.95918385322239
O         1.02778132903456    1.77086111315984    2.39995571722419
C         1.73626432271751    4.06911203649663    2.60412646224076
H         1.57224455169508    4.17189378479883    1.53674027309379
H         0.83003786515819    4.37840788666804    3.11889660816112
H         2.55397865192943    4.71327612434405    2.91603989680963
C         1.98988348860431    2.44512199427447    4.48302138851970
H         2.15150690954549    1.40417207094576    4.74866757291877
H         2.72976175557858    3.07187599322131    4.97166112329435
H         1.00005052108109    2.72907681880474    4.83275712604324
B         2.27820000000038   -1.33090000000110    0.17409999999977
O         3.04997638852230   -2.36624999830002    0.66377395272825
C         4.35086960947763   -2.34452850979339    0.06501010269616
C         5.28781221368534   -1.68254733201015    1.08128440479022
H         4.88896397539425   -0.70621642871556    1.34252421957004
H         5.29995054399869   -2.28952920761023    1.98305871333707
H         6.29949955897466   -1.59693240948221    0.69659926669760
C         4.81755283922081   -3.77571902158445   -0.19929090426324
H         4.92600801845721   -4.28866998100359    0.75265829423219
H         5.77789659824709   -3.76758795591878   -0.70733539753011
H         4.09616747821760   -4.32366972680282   -0.79613299187674
C         4.12322492819381   -1.47052507571576   -1.21669447488705
O         2.91262357395837   -0.76281223288671   -0.90899946911141
C         5.23673893057489   -0.46830422843025   -1.51391362101516
H         6.18400642027696   -0.98535648487454   -1.64071719752846
H         5.00255508125449    0.06678305111171   -2.43084788745052
H         5.31765566493454    0.25543683916671   -0.71054541459648
C         3.85015272674973   -2.30565937449948   -2.47553684201685
H         3.03703988476008   -3.00287947782459   -2.29277682766262
H         3.54412494968050   -1.63682392499107   -3.27673331017911
H         4.73879458759788   -2.84662398811440   -2.78647421421157
H        -3.20444436312387   -3.20635927764750   -3.29720712797914
H        -5.01733565700076    1.82863151719696    1.10170015204187
C         0.23590000000027   -1.68139999999989    2.96029999999991
N        -0.90294219753426   -2.26520842243966    3.44151557884249
C         1.02533353362782   -1.37603777146822    4.05086255559009
C        -1.99181680079151   -2.80836693883852    2.67998711626677
C        -0.86869317680034   -2.27252852887025    4.80367409834189
C         0.31633322304214   -1.72440481627382    5.21489684158627
H         2.00880068822929   -0.95292370491958    4.00051269722882
H        -2.39115016468723   -3.68626417164125    3.18963548387345
H        -1.63784570800719   -3.09933364095175    1.69258942236964
H        -2.79889136609982   -2.07857030810485    2.56260229116293
H        -1.68541907691177   -2.66858247429387    5.37664273182086
H         0.64136725864213   -1.59782967081954    6.23068744950256
