   98
 energy: -139.594557523793 gnorm: 0.000272578613 xtb: 6.4.0 (f63f532)
N        -0.90714834416387   -1.93429261168635   -0.50532834393437
C        -2.11064943475660   -1.36373148823338   -0.71401722014875
C        -2.91540177743976   -1.75840265376472   -1.78959069869406
C        -2.48177377888660   -2.74673023223770   -2.64565115600059
C        -1.23788893255476   -3.32959481049012   -2.41558287720740
C        -0.49720703187014   -2.88348252973071   -1.34151945974583
H         0.47371830476265   -3.30600098662803   -1.12334445775833
H        -0.85962590989121   -4.10805484702559   -3.05818704933645
H        -3.87059401090972   -1.28999431139723   -1.96172511610619
C        -2.50413850509013   -0.32784481575518    0.23213712637041
N        -1.58817011949313    0.01951239916973    1.16324920666407
C        -1.91594751538077    0.94034349957393    2.06682237165825
C        -3.13725636316045    1.58131882085258    2.09534275810864
C        -4.08444061119700    1.25012806079223    1.12938400069613
C        -3.76149697608398    0.28729908981348    0.19766225134530
H        -4.48762249652160    0.00696048153736   -0.54741735191800
H        -3.34924662351270    2.31613999256764    2.85514166545022
H        -1.15010865222643    1.16996679803484    2.79120453781764
Ir        0.42149999999991   -0.81649999999940    0.91330000000005
B         0.46934759513411    0.64422820873816   -0.59400955614464
O        -0.26381261787533    0.44840033659186   -1.75226027546266
C        -0.25960297389810    1.63792882694783   -2.54683280899909
C        -0.14061051099388    1.27013571360507   -4.02375894221251
H         0.70491210319558    0.61107346989931   -4.18986150691113
H        -0.02723073091387    2.16860420733552   -4.62498148859659
H        -1.04354655831347    0.74993110488498   -4.33477355267956
C        -1.60373696127419    2.34103164220557   -2.30788442068342
H        -1.69270097525712    3.23701008316482   -2.91507620667885
H        -2.40599732215107    1.65374377354414   -2.56913186371782
H        -1.70894248104165    2.59658379664010   -1.25541425212820
C         0.95260097365686    2.43299899100993   -1.96155868014239
O         1.07889435285691    1.87790285643019   -0.64561326349274
C         2.26326880078365    2.12880245614578   -2.69739872239286
H         2.43623843446416    1.05543329765524   -2.68589495926609
H         2.24253255139520    2.50323141750042   -3.71678293354742
H         3.08325981083498    2.60275349891001   -2.16255900693133
C         0.75289601327847    3.94516933959326   -1.87607601694205
H        -0.05805705592682    4.19733491484588   -1.19959245970485
H         1.66402504011740    4.40495555888392   -1.50020965830121
H         0.54052414893468    4.34849631671650   -2.86305595323885
B         1.54465478577945    0.69347200018866    1.81436864025717
O         2.91088746162984    0.81309717394631    1.86790263211255
C         3.28621899220791    2.09764066296850    2.38140267957103
C         4.43714488004244    1.93090556297508    3.37434171275092
H         4.17827333620162    1.22857984398844    4.15939017915782
H         5.30416015464594    1.54098813196248    2.84716843169566
H         4.69593751971205    2.89059807125002    3.81339013452355
C         3.76842809825445    2.92414163353508    1.18299619547886
H         4.03465673514832    3.93562541649603    1.47466322667973
H         4.64386760219656    2.43902045944984    0.75666163679626
H         2.98826804587069    2.93578906950640    0.42715684302345
C         1.94734433314261    2.63293824210196    3.00516258481958
O         0.95531072973858    1.76815106274437    2.43796782795566
C         1.60799391185157    4.07862534955978    2.64256426204644
H         1.48506582581304    4.18070223880477    1.56955261837196
H         0.67053650663770    4.35313189220651    3.11990864093115
H         2.38829779602187    4.74971391088808    2.99099255015698
C         1.87365151610662    2.46545119779140    4.52841932637499
H         2.02361861505208    1.42333143088139    4.79605631831377
H         2.60984221525963    3.08832270461385    5.02689816999580
H         0.88080790378657    2.75626326419158    4.86378807203480
B         2.27820000000230   -1.33090000000028    0.17410000000086
O         3.18180040517054   -2.14926051420413    0.81878754313095
C         4.42457533112154   -2.18382671941267    0.10938214073909
C         5.38617713721953   -1.25481709326634    0.85824464451531
H         4.93257999639799   -0.27145190483688    0.93977598545874
H         5.52280083398526   -1.64234399868696    1.86471327987780
H         6.35183318151413   -1.19584420084665    0.36546162919429
C         4.98160717726848   -3.60763820317716    0.12866735737546
H         5.20481997580864   -3.88007224214361    1.15677008961271
H         5.89503605522203   -3.66048591329306   -0.45722687810981
H         4.26051809003852   -4.32061112968765   -0.25689384367935
C         4.02709329288470   -1.64396083591694   -1.30940364168969
O         2.77601782382511   -0.98254430611013   -1.06365289029030
C         5.01510274014931   -0.64856806822832   -1.91508728195856
H         5.99877227865812   -1.10153477915616   -2.00369513061351
H         4.67142884876202   -0.36150773186591   -2.90583981769724
H         5.07528154661006    0.24601946742994   -1.30479495406146
C         3.75697536720092   -2.76181403303937   -2.32598720563760
H         3.03254394875909   -3.46584591460398   -1.92590514114032
H         3.33547732025117   -2.31994495579952   -3.22569853307919
H         4.67330252289455   -3.28409788997477   -2.58371665801697
H        -3.09360900110261   -3.06030073276068   -3.47805989316484
H        -5.05160907053709    1.72962756571578    1.11324809689928
C         0.23590000000196   -1.68139999999917    2.96030000000441
C        -0.97610436933779   -2.19833661982480    3.42552018949309
C         1.20743086787694   -1.33351503838412    3.90090464297370
C        -1.23907769880351   -2.19436679465860    4.79459757242975
C        -2.01534967040868   -2.80103636788913    2.52330766320994
C         0.94068492045635   -1.34902755917896    5.25822475055963
H         2.19010482380287   -1.05542710127741    3.55306999237549
C        -0.30528026978600   -1.75255320293483    5.71067227423870
H        -2.19524498848800   -2.56376238219578    5.14203380211213
H        -2.41605959188800   -3.70889847828408    2.97297034059412
H        -1.59076896811655   -3.04699268679905    1.55482391215436
H        -2.84700859478639   -2.11229672916789    2.37226541338224
H         1.70474163572514   -1.05911312114444    5.96628499885267
H        -0.53297870578018   -1.75564865121526    6.76710867312497
