   98
 energy: -139.597444771794 gnorm: 0.000172113488 xtb: 6.4.0 (f63f532)
N        -0.89197909008608   -2.02259929130193   -0.39302806872397
C        -2.15500543523570   -1.57690988296245   -0.54058570493572
C        -3.02341322022734   -2.17243872507496   -1.46553811237150
C        -2.58418454637211   -3.21865988993078   -2.24558103344263
C        -1.27279929687671   -3.66301685958430   -2.08720335271245
C        -0.47882534170763   -3.03430191738994   -1.15203083995472
H         0.54210650546422   -3.34967169038509   -0.98828128613152
H        -0.88612273669453   -4.47916999363763   -2.67567504670461
H        -4.03539138301813   -1.81857815822537   -1.57476288348519
C        -2.54469486343066   -0.45657438054336    0.30385957180684
N        -1.60529086992941    0.01317497053919    1.15406097537761
C        -1.92151963363434    1.02820663672597    1.95562857912613
C        -3.15849430076345    1.63841643104418    1.96212321801838
C        -4.13237739235753    1.17775739623939    1.07865849784939
C        -3.81736286644097    0.12633422639786    0.24638485882402
H        -4.55711303516108   -0.24173937296967   -0.44514771340355
H        -3.36150114173254    2.45107029309410    2.64069565230988
H        -1.13040231675860    1.35894821075813    2.61072222056027
Ir        0.42150000000005   -0.81649999999996    0.91329999999999
B         0.38883718869971    0.64095582584797   -0.58326438403624
O        -0.29386086628811    0.38652680167721   -1.76166724502419
C        -0.39966330716350    1.58606883710019   -2.53476397287053
C        -0.21451980513956    1.26546676533843   -4.01576808029661
H         0.69063675867088    0.68852863987708   -4.17376227493771
H        -0.16842277318107    2.18477253354350   -4.59397394318533
H        -1.05911498918066    0.67458430595822   -4.36238245804176
C        -1.81368582962929    2.14155738849677   -2.30955882285876
H        -1.98643673166022    3.03227223370744   -2.90644824665101
H        -2.53647824830700    1.37858180962505   -2.59254044154762
H        -1.96151538120934    2.37019806148197   -1.25583184839950
C         0.71044611487401    2.49134660430819   -1.90903763599017
O         0.85783871440784    1.93554612726583   -0.59575917711964
C         2.06454809296874    2.32803681230491   -2.61050277272584
H         2.33976905200998    1.27601717975864   -2.61144656620031
H         2.03815427580442    2.71871402934951   -3.62380783500640
H         2.81815684736560    2.86687739300478   -2.04089379841476
C         0.35825139300691    3.97451406536894   -1.81488269976718
H        -0.49309280342710    4.13626169383390   -1.16099174828348
H         1.20754752016509    4.51685724783004   -1.40627261977481
H         0.13544172101754    4.36714255816110   -2.80388608401189
B         1.55210294087137    0.64759322054427    1.88299953264712
O         2.92097142455918    0.78875173673400    1.90617855863684
C         3.27588822477165    2.06079543784739    2.46677291544304
C         4.52165491678091    1.91576034204613    3.33951515856823
H         4.39544111510361    1.12648965379002    4.07304482103414
H         5.37049880480655    1.66035428248105    2.71036696356419
H         4.73229504010211    2.85374499355812    3.84630256394641
C         3.58199464241430    2.98830667245756    1.28457125722037
H         3.84617624856146    3.98758346175600    1.61786934551127
H         4.41427732494993    2.57065506815129    0.72237330468330
H         2.71664203065013    3.01792441732401    0.62744493116219
C         1.97547869277309    2.47144345853312    3.23732178214826
O         0.97092538824623    1.66206667302933    2.61285477261355
C         1.58982354095433    3.94417756376016    3.10923144061306
H         1.37403215618741    4.19447635546730    2.07600229764668
H         0.69558853268165    4.13003059707262    3.69914158173883
H         2.39193782646532    4.57626154654674    3.48089283343282
C         2.00871639534440    2.08596007751170    4.72197987874013
H         2.23471282183060    1.02854665639031    4.82537072406238
H         2.73886583137973    2.67904720077880    5.26413179155224
H         1.02378885110422    2.25961446102035    5.14905186538309
B         2.27819999999904   -1.33089999999947    0.17410000000045
O         3.12127173957031   -2.28719476894754    0.70114150207054
C         4.40385179602622   -2.22882437536235    0.06540747950537
C         5.33719109245794   -1.49747212108665    1.03655677558821
H         4.89906248079649   -0.53555014824686    1.28722619838476
H         5.40745155418941   -2.08179761043106    1.95061096170198
H         6.33122285471021   -1.37210968075059    0.61859669058567
C         4.92370284957264   -3.64819181505845   -0.16394636943225
H         5.07037868707518   -4.12665862833517    0.80077331072842
H         5.87320178821535   -3.61800506790833   -0.69104729748147
H         4.21407034196210   -4.24325267315183   -0.72901794832857
C         4.10951466013305   -1.40946275191766   -1.24134702039018
O         2.84911127517688   -0.78665413847797   -0.95388691446853
C         5.13791682154200   -0.32558188219313   -1.56186376794922
H         6.12415607245596   -0.76381972906928   -1.68733053652632
H         4.85376641746815    0.17191737436857   -2.48578752568079
H         5.16082451089714    0.41694348436073   -0.77188015873359
C         3.90957038909639   -2.29144019313317   -2.48150384084296
H         3.14543580344202   -3.04022723127971   -2.29222184631922
H         3.56770618409471   -1.66458527892496   -3.30161922300113
H         4.83731957675382   -2.77596981961035   -2.77036282423133
H        -3.24256798636366   -3.68297038646525   -2.96410327588707
H        -5.11145421838469    1.63156142489513    1.04574999418717
C         0.23590000000031   -1.68139999999991    2.96029999999830
C        -1.04085610622596   -2.07375370666757    3.34813826402512
C         1.20027240811247   -1.53917709081786    3.95584709884739
C        -1.36623090541340   -2.22467430133557    4.68747479580890
H        -1.80586068412524   -2.27235617796589    2.60925343380335
C         0.87529611778765   -1.69614059062773    5.29095903033494
H         2.21611389193596   -1.30933759213164    3.67097923131938
C        -0.41776637432712   -2.03084682184870    5.68101235651623
H        -2.37435153059670   -2.51046822740830    4.95921780912909
H         1.63771216981411   -1.57037870318762    6.04835136097612
C        -0.75313086032789   -2.22166192752078    7.13116676179125
H        -0.34054489714037   -3.16554282861817    7.48871176782366
H        -1.82974533571636   -2.24050355046063    7.28186255479810
H        -0.32612115882963   -1.42195926048973    7.73320182723401
