  106
 energy: -152.622335934881 gnorm: 0.000407424959 xtb: 6.4.0 (f63f532)
N        -0.97288909905261   -1.98432983191674   -0.34344519567456
C        -2.18623022134667   -1.43835490691897   -0.56092893994643
C        -3.10076801848026   -2.04014041196853   -1.43459851654845
C        -2.75379508263361   -3.19263556212635   -2.10215255184344
C        -1.48948075169838   -3.73505306082757   -1.88211483976418
C        -0.64969391927479   -3.09807433380044   -0.99489577102866
H         0.33336446445575   -3.49309859687502   -0.78072295716478
H        -1.17454529068075   -4.63519999680029   -2.38399946514671
H        -4.07853378600182   -1.61210233268782   -1.58397584751961
C        -2.47346978149782   -0.20685999537557    0.15973889984448
N        -1.53216559971061    0.20448227635949    1.04362858402706
C        -1.75438026232224    1.32214615402563    1.73689119854888
C        -2.88884717071657    2.09281403403475    1.59520519301816
C        -3.85761243825468    1.69318294462630    0.67608147350017
C        -3.64188368409028    0.53755749095161   -0.04302528920808
H        -4.37425745734739    0.21701453964634   -0.76538106404598
H        -3.01760578935736    2.98397284989435    2.18790885762066
H        -0.97103204146593    1.59780471643565    2.42566374366773
Ir        0.42149999999978   -0.81649999999994    0.91330000000084
B         0.47794716924073    0.58243946317766   -0.63861329387871
O        -0.12805539090347    0.27976883291934   -1.84416316256405
C        -0.16535486985276    1.43818214761370   -2.68382729855174
C         0.15979279676151    1.03504870814955   -4.12038004108841
H         1.08218261648202    0.46505969126813   -4.15883095912111
H         0.24704111125420    1.91803527035421   -4.74822252876962
H        -0.64221695383367    0.40875540710023   -4.50403071233949
C        -1.59660411421783    1.99165083737236   -2.63050511746658
H        -1.71140108734234    2.84394384798612   -3.29368404078295
H        -2.28444672317718    1.20646591389150   -2.93857501243544
H        -1.85036288510285    2.28198035029273   -1.61321525886861
C         0.87883724218570    2.38718842122309   -2.00650843625301
O         0.94546054420672    1.87600549580776   -0.66805652450764
C         2.28162787426186    2.24035632945114   -2.60813078221138
H         2.59245897732261    1.20156454551860   -2.53046106251917
H         2.30815358117227    2.57347283085268   -3.64168628762234
H         2.97728957822718    2.83962330217348   -2.02540339454191
C         0.48797492660312    3.86386843980327   -1.97979096544928
H        -0.41680838720699    4.02245340480524   -1.40130027259689
H         1.28912050769577    4.43483771897466   -1.51664217637346
H         0.33949050574629    4.22800543180474   -2.99320164225170
B         1.64590169319773    0.58986400580960    1.86763010529011
O         3.02227348801255    0.61276285274726    1.89897676001078
C         3.48208617374354    1.88220248827388    2.38206698580305
C         4.71199363929248    1.68873024846698    3.26782182616939
H         4.51989657021966    0.96207516371882    4.05023971857538
H         5.53515586659306    1.32097316603222    2.66025827272866
H         5.00337881065523    2.63598254770528    3.71377748418132
C         3.86346365999831    2.70551162411361    1.14563035339463
H         4.21631227881759    3.69618995704387    1.41682783464677
H         4.65240851537571    2.18247901879714    0.60991225250109
H         3.00080867845071    2.77054289424036    0.48759376362794
C         2.21872544506289    2.44620204384579    3.11611889420265
O         1.15028490882163    1.68885934202295    2.53172386962213
C         1.96029645254658    3.93548399697402    2.89442923469053
H         1.75881628326243    4.13567916095212    1.84742407804257
H         1.09023959930100    4.23578803131036    3.47286873442370
H         2.81724498082918    4.51775565264506    3.22210529193928
C         2.21662887997299    2.14975907012297    4.62104812839929
H         2.34841963334547    1.08467165483552    4.78992283794719
H         2.99682747565342    2.70751114765841    5.13011432965312
H         1.25145932876967    2.43513964969353    5.03251117627729
B         2.27820000000322   -1.33090000000005    0.17409999999478
O         3.03613523549048   -2.39878175035175    0.60762398754779
C         4.31053712843379   -2.40422800537487   -0.04874754810547
C         5.31516636370312   -1.80076010569780    0.93833069993624
H         4.96335672279124   -0.81793623606033    1.23916811524514
H         5.34791211655447   -2.42975643005279    1.82433140104391
H         6.31028170336039   -1.74002006175932    0.50845326253137
C         4.71381996734253   -3.84241181926199   -0.37181033398012
H         4.84986965934810   -4.38506221585614    0.55980986490618
H         5.64835893799505   -3.85213295535526   -0.92593517833810
H         3.94558649168861   -4.34809229255059   -0.94711768055357
C         4.05686299408142   -1.48941335137849   -1.29614928007263
O         2.89185144639422   -0.74439798867276   -0.91113575540838
C         5.19498404002845   -0.52615105539882   -1.62721378031796
H         6.11184760360727   -1.07859624722316   -1.81403043077229
H         4.93819576456768    0.03942645661551   -2.51949052013455
H         5.34758605139178    0.17497282242188   -0.81423471721359
C         3.68631233044320   -2.28143442738469   -2.55823418211217
H         2.85169661698098   -2.94576712912026   -2.35051158436997
H         3.37117397879643   -1.58106110179552   -3.32848053868195
H         4.53349872285349   -2.85263560106518   -2.92555065155978
H        -3.44865298587503   -3.66648679288572   -2.77862593070641
H        -4.75485308732963    2.27479356130773    0.52770299686022
C         0.23590000000065   -1.68140000000143    2.96029999999952
N        -0.91893960404981   -2.17140633766888    3.51159331451528
C         1.14837639664593   -1.56022007371448    3.99113221270504
C        -2.13615942855452   -2.52076391489627    2.83687769955050
C        -0.75868850107168   -2.30183854695901    4.85999764770736
C         0.51345401600724   -1.92445357218187    5.19207384714557
H         2.16596496111068   -1.24434161388543    3.87192447789597
C        -2.08451705210374   -3.81953606602005    2.06426027127737
H        -2.92731253576006   -2.59783581111395    3.59196161661233
H        -2.41841215845334   -1.71822221082121    2.15057772239969
H        -1.56386333928497   -2.64478505340100    5.48169034778022
H         0.94041472824348   -1.91793320424512    6.17747575861592
C        -3.19556301342368   -4.18854432852852    1.31398282820714
C        -0.98008573105206   -4.65729833508930    2.08958691911082
C        -3.20225253154781   -5.37173566078107    0.60007415536131
H        -4.06063964810178   -3.54002846711871    1.29302203238831
C        -0.98527517922460   -5.84157300287664    1.37107393611022
H        -0.11230595608058   -4.38534703312992    2.67076063693451
C        -2.09386337856813   -6.20262940242436    0.62612122946355
H        -4.07317575426391   -5.64674844533041    0.02330182563340
H        -0.11769461077594   -6.48404771838590    1.39775199183824
H        -2.09797881463373   -7.12809296688950    0.06977735420094
