  106
 energy: -152.619989108348 gnorm: 0.000163364931 xtb: 6.4.0 (f63f532)
N        -0.83293911936143   -2.00778154880843   -0.44929451998426
C        -2.08483490283827   -1.54842282969751   -0.65364124379872
C        -2.89692846965858   -2.09478114329120   -1.65717513203597
C        -2.41799510171158   -3.11119700521882   -2.45180636811899
C        -1.12255242016188   -3.57664694153223   -2.22836858897453
C        -0.38288752836916   -2.99392853647278   -1.22271944539833
H         0.62368659470732   -3.32691249346984   -1.01075987540564
H        -0.70688683770036   -4.37234545806365   -2.82527812220124
H        -3.89556180104759   -1.72222565900990   -1.81725784487106
C        -2.51699024488655   -0.46496270481042    0.21397608475880
N        -1.61217410202373   -0.01814563513169    1.11524407792734
C        -1.96810494643009    0.96739749933998    1.93825257905091
C        -3.20822595670770    1.56960076763277    1.91735413554021
C        -4.14697306674890    1.13025320081648    0.98471861683378
C        -3.79336702433777    0.10836561099559    0.13230943458477
H        -4.50570499473149   -0.24693287637379   -0.59403587572135
H        -3.44239944852422    2.36021882648819    2.61197617555581
H        -1.20450015439821    1.28103341630381    2.63332903676875
Ir        0.42150000000007   -0.81650000000002    0.91329999999991
B         0.43801918938626    0.64842136395258   -0.57387760951749
O        -0.14471552983450    0.37984129523378   -1.80137168223621
C        -0.23281084432131    1.57845795495243   -2.57680510146677
C         0.09209657005267    1.27379609439251   -4.03726406430578
H         1.03444781087270    0.74195228627697   -4.11751938312845
H         0.14210895215477    2.19654987608279   -4.60980493202079
H        -0.69047696681661    0.64380796533933   -4.45363634636957
C        -1.68348205885526    2.07217298589954   -2.47452825391282
H        -1.84006782777644    2.96167599848338   -3.07758762981284
H        -2.34428053377190    1.28255586474625   -2.82746140381138
H        -1.93463442879195    2.28177856811858   -1.43647253573731
C         0.78209320838398    2.52576568910718   -1.85713049249252
O         0.85516313523630    1.96127638871879   -0.54213556796181
C         2.19234152604833    2.43622839943859   -2.45377929703094
H         2.52019943888269    1.39958945779197   -2.43434570425059
H         2.22257292812227    2.82984296130853   -3.46579101210756
H         2.87235069836599    3.01080062208767   -1.82895142994904
C         0.35363438146339    3.98991943325899   -1.77663596224327
H        -0.55575689445688    4.10343534898446   -1.19462563433806
H         1.13936844319104    4.56449207716751   -1.29198290197828
H         0.19642830002649    4.38641749591352   -2.77669158661706
B         1.51366363941912    0.63337648771038    1.94265230750539
O         2.88081636908830    0.76801379040458    2.03461651241126
C         3.21116190606743    2.03712039157189    2.61529592983925
C         4.41139837368781    1.88452503594356    3.54830474292871
H         4.24404451179423    1.09362969014002    4.27181459682026
H         5.28877391566835    1.62565336164428    2.96106030035999
H         4.60141024258763    2.81984827947840    4.06804340702823
C         3.57776413405906    2.96619861881202    1.45154573011678
H         3.83293981538535    3.96293659164427    1.79940422685141
H         4.43175741695372    2.54422412779535    0.92636748288134
H         2.74312276225732    3.00368285071795    0.75608126801291
C         1.87533863873489    2.45208303096760    3.32025130903069
O         0.90097785587600    1.65184012837926    2.64154826602098
C         1.50466279171217    3.92772285224713    3.17899730056984
H         1.34017526609478    4.18173645211097    2.13726366587084
H         0.58349073655507    4.11698392113632    3.72476071515950
H         2.29109126115663    4.55454817209553    3.59089692954262
C         1.82865815285906    2.05900076595433    4.80283157421684
H         2.03890750039446    0.99866447976723    4.91126542743382
H         2.53459262341799    2.64256332144036    5.38576911536048
H         0.82417634764645    2.23965976102479    5.17850230132204
B         2.27820000000067   -1.33089999999903    0.17409999999965
O         3.09106788198931   -2.34002282330151    0.65374521968066
C         4.39919787193505   -2.23690310959096    0.08001802772171
C         5.27798201305902   -1.54411085434359    1.12794330840286
H         4.82035890433639   -0.59621302919622    1.39823494452194
H         5.30549663081809   -2.16704342601800    2.01846690612423
H         6.29100075214716   -1.39579654971125    0.76664021266607
C         4.94983227903415   -3.63451512858256   -0.20177700560237
H         5.07125128600873   -4.15939648962520    0.74209718523003
H         5.91647755558063   -3.56256532339145   -0.69258291959784
H         4.27057995276182   -4.21023434906908   -0.82165940707093
C         4.15065827126405   -1.35033891261583   -1.18938655006478
O         2.89634673510460   -0.71885405530013   -0.89507260496915
C         5.20795670470714   -0.27542547487277   -1.43655062761645
H         6.18947982307774   -0.72851876378146   -1.54634751028194
H         4.96478367472338    0.26173681206638   -2.35006280195718
H         5.21911509100908    0.43640084061360   -0.61838639790808
C         3.95880591627984   -2.17134362048019   -2.47197420338845
H         3.18740356709339   -2.92229946725678   -2.32476765773565
H         3.62924198659717   -1.50476944780549   -3.26556394626398
H         4.88671604718196   -2.64837115785344   -2.77292132290267
H        -3.03198457163447   -3.53718879646568   -3.23089202546574
H        -5.12815132921031    1.57767704143352    0.93107175144797
C         0.23589999999826   -1.68140000000020    2.96029999999948
C        -0.98232269905261   -2.05243278685808    3.47815769687806
C         1.11713138857647   -1.58741374128857    4.06551648834433
N        -0.88810844640750   -2.13181985607062    4.83724701078580
H        -1.91395070328600   -2.26533045683138    2.98910765687681
C         0.39508326919192   -1.85739662545215    5.19583505483099
H         2.16028068637603   -1.34789373708519    4.00873984608890
C        -1.93727802347401   -2.56640811943390    5.71673529230404
H         0.69492892189836   -1.87173603964217    6.22645416683704
C        -2.16026187449872   -4.06428527338036    5.68053433200537
H        -1.67268164871859   -2.27045704203721    6.73797227039618
H        -2.86856505818414   -2.05702691134539    5.44726634424698
C        -1.12580012473112   -4.93548686379179    5.36587654847507
C        -3.41221679611397   -4.58487302528166    5.98439817117467
C        -1.34142706003725   -6.30293879460858    5.35296059423423
H        -0.14954734788309   -4.54228676650775    5.12307974612067
C        -3.62657277490834   -5.95206313114901    5.97670116758694
H        -4.22415907895898   -3.91495312310481    6.23007170155807
C        -2.59079474200119   -6.81521266633192    5.65932054339453
H        -0.52940975273787   -6.96956467497524    5.10260381305824
H        -4.60463998863167   -6.34423578693978    6.21477370074075
H        -2.75756878143618   -7.88217981838548    5.64936125387770
