   97
 energy: -139.875687038845 gnorm: 0.000178222423 xtb: 6.4.0 (f63f532)
N        -0.91499721871570   -2.02907806632213   -0.36675641348871
C        -2.17890364288186   -1.58448258802567   -0.50141157025441
C        -3.08142673706876   -2.23246483439116   -1.35583759934764
C        -2.67100144644768   -3.32546859985507   -2.08636702911948
C        -1.35540284087907   -3.76322679679665   -1.94868357721629
C        -0.52897464437945   -3.08481524951919   -1.07805957722265
H         0.49590734381796   -3.39470876396265   -0.92944816481274
H        -0.98998249423097   -4.61335606503123   -2.50136449637809
H        -4.09788570848345   -1.88604371262817   -1.44412937137432
C        -2.53580436205887   -0.40890622621793    0.28118068263348
N        -1.59410210591774    0.06158084394316    1.12823524511462
C        -1.88207719016075    1.12927267644611    1.87069180235333
C        -3.08933639932209    1.79404067164222    1.81473798895603
C        -4.06138852583801    1.33569857567105    0.92851201494123
C        -3.77663585090198    0.22891502577321    0.15901878608858
H        -4.51236552033252   -0.13537536009964   -0.53862405780761
H        -3.26958454567147    2.64871539025408    2.44645014139095
H        -1.09245912488647    1.45790272378520    2.52882714707764
Ir        0.42149999999990   -0.81650000000004    0.91330000000014
B         0.40084480398703    0.63144593477553   -0.59076934949773
O        -0.24638170367975    0.35951277133561   -1.78245285649811
C        -0.32663163730747    1.54730034085994   -2.57845631944084
C        -0.08060276551834    1.20195395110196   -4.04495792379209
H         0.83252408506617    0.62635760990613   -4.15468263334373
H        -0.01411663545657    2.11102148371348   -4.63711590295785
H        -0.90790847464622    0.60134719177168   -4.41562939620792
C        -1.75020194904938    2.10012887664647   -2.41901787447597
H        -1.90105544705388    2.97933047211930   -3.03829993105908
H        -2.45857897296210    1.32972327099634   -2.71736036446069
H        -1.94154537892263    2.34760660044734   -1.37662467365113
C         0.75522647533676    2.46787709615206   -1.92490565347472
O         0.86109194938334    1.92808853042137   -0.60005420177088
C         2.13392406017300    2.30633108691378   -2.57682768737972
H         2.41964074447796    1.25753969418792   -2.54830197868648
H         2.13745938778142    2.67782854146926   -3.59750665449434
H         2.86233477515762    2.86439987039949   -1.99330270397999
C         0.39041541528727    3.94946408318258   -1.85937277783517
H        -0.48623484142255    4.11309957883502   -1.24036942753912
H         1.22018661501793    4.50121004256637   -1.42417307691451
H         0.20361632831909    4.33058279460386   -2.86014839810491
B         1.57629541444872    0.63257501661871    1.87932110024764
O         2.94499023822722    0.76790770756137    1.87704681839659
C         3.31415981867543    2.03990475131622    2.43047103144761
C         4.58102622756334    1.89469652068115    3.27190969617679
H         4.47506961135219    1.10459955941721    4.00758033442099
H         5.41431387108498    1.64194937828204    2.62128260681251
H         4.80265330234374    2.83222217477585    3.77461220532211
C         3.59117823133717    2.96874008889512    1.24259986766829
H         3.86817075482700    3.96591232384401    1.57163857127460
H         4.40624230192871    2.54909079271554    0.65720242070549
H         2.70856205479033    3.00366884570400    0.60931811631465
C         2.03231163042735    2.44869322047536    3.23189850314320
O         1.01204116835330    1.64268080679023    2.62645014797796
C         1.64422431737766    3.92163099045463    3.11988608356021
H         1.40202855500852    4.17596758023536    2.09344971233969
H         0.76558079436371    4.10489265450819    3.73352861871031
H         2.45578055116591    4.55191926467006    3.47340637993992
C         2.10033497409516    2.05234532207703    4.71180966145311
H         2.33863538741688    0.99622996194902    4.79974409843431
H         2.83760772043015    2.64652593571661    5.24298755838401
H         1.12341291710338    2.21332777808707    5.16210505521930
B         2.27820000000037   -1.33089999999890    0.17409999999969
O         3.10211283207776   -2.30248689939287    0.70204216756412
C         4.38532656142691   -2.26982953718778    0.06381646408155
C         5.33358188568568   -1.55331497134778    1.03127790948140
H         4.91556328943028   -0.58148473102770    1.27787849022426
H         5.39296106050654   -2.13531288374570    1.94762244729409
H         6.32959213168558   -1.45014567021718    0.61222267176967
C         4.87764102787068   -3.69915262847501   -0.16313056699242
H         5.01942096486810   -4.17761897768076    0.80234532417082
H         5.82543444138442   -3.68798107110626   -0.69389002841109
H         4.15511588374998   -4.28277142879611   -0.72375551477483
C         4.10249271712898   -1.44842848613906   -1.24372002154810
O         2.85878256956720   -0.79323842938990   -0.94980466066809
C         5.15610654423499   -0.39333107808571   -1.57623504206960
H         6.12988289721596   -0.85819037705274   -1.70261062713434
H         4.88137623659987    0.10478096327898   -2.50259341529002
H         5.20248750336828    0.35352428674827   -0.79140071475766
C         3.86847338439338   -2.33071133808172   -2.47746943515446
H         3.08873807020833   -3.06013862003014   -2.27616273972293
H         3.53205529661277   -1.69951583735975   -3.29651939359233
H         4.78113818618041   -2.83847147452340   -2.77421515538091
H        -3.35535625194271   -3.83148309276473   -2.75021161982591
H        -5.01483501742211    1.83477495002262    0.84399455531513
C         0.23590000000176   -1.68140000000008    2.96030000000095
C        -1.05204636547822   -2.04323873340932    3.35591068208875
C         1.19158736660342   -1.57746913991183    3.96730319121189
C        -1.32293835429990   -2.18689675965359    4.70617044585902
H        -1.84198566170119   -2.21745241624951    2.63994694037305
C         0.82992482275635   -1.76077277373593    5.29866258505086
H         2.21830019899115   -1.36646329116752    3.70993698416567
N        -0.41780720686920   -2.04891424946623    5.66015480707145
H        -2.31996966512876   -2.44147772784659    5.04874689224108
C         1.83451687775641   -1.64759421517955    6.40617962578584
H         1.51603145961654   -2.25151499962012    7.25108985537547
H         1.90384106964350   -0.61209402258366    6.73775498480774
H         2.81560582644185   -1.96982995469051    6.06770398493845
