   97
 energy: -139.871630286000 gnorm: 0.000213799630 xtb: 6.4.0 (f63f532)
N        -0.94046481046956   -2.04537573483203   -0.34207055121891
C        -2.20640799097410   -1.60063809229483   -0.46568468268323
C        -3.13290542698090   -2.28234322662132   -1.26796730720288
C        -2.74172952425343   -3.40246527145145   -1.96615667884039
C        -1.42180601096879   -3.83577297344390   -1.84707040800555
C        -0.57365496383929   -3.12845302137645   -1.02170483133645
H         0.45343802135572   -3.43634663506068   -0.88339499820729
H        -1.07106131678670   -4.70571402024758   -2.37813066877214
H        -4.15288653715023   -1.94098466848360   -1.33645999279224
C        -2.53811290753162   -0.39251889390325    0.27325324661727
N        -1.59142118965126    0.07755453803531    1.11820340618587
C        -1.85979421186840    1.17769222188540    1.82245221848028
C        -3.04627013180268    1.87277616287005    1.72914197911496
C        -4.02008472544952    1.41589711491901    0.84181532420242
C        -3.75687727745473    0.27882794786070    0.11085677570827
H        -4.48949518186345   -0.08343718240736   -0.59148971139359
H        -3.21128817685580    2.75120727876998    2.33198289742641
H        -1.06884882344474    1.50416602045623    2.48025846302145
Ir        0.42150000000012   -0.81650000000015    0.91329999999996
B         0.38685525664152    0.63025601774399   -0.58954535985798
O        -0.19196316451054    0.30736627415478   -1.80263522101779
C        -0.28566606367551    1.47121832728487   -2.63108870305387
C         0.07309275684612    1.10263595199266   -4.06876663307804
H         1.02552923004046    0.58430346734791   -4.10378665461147
H         0.11766070568459    1.99626215403505   -4.68595311757172
H        -0.68963419956887    0.43759118600281   -4.46692969461860
C        -1.74517208178392    1.94586582352170   -2.58070023977302
H        -1.90032106557585    2.80563992261844   -3.22582295423583
H        -2.38776662091345    1.13280252763158   -2.91305341834385
H        -2.02271828225404    2.19816518658477   -1.55918146143771
C         0.70131373437716    2.46621082915757   -1.93506304463906
O         0.77340552450866    1.95106654344645   -0.59817567794893
C         2.11908525663082    2.38679716824156   -2.51436509667553
H         2.47370354150433    1.36153012293535   -2.44099753204139
H         2.14777177438491    2.73158849601461   -3.54398899881437
H         2.77754457161265    3.00976634436694   -1.91373995322044
C         0.24062167256860    3.92225684705372   -1.90808880255533
H        -0.68253981682639    4.03409765479491   -1.34794940112043
H         1.00417650367344    4.52721627005229   -1.42521704477845
H         0.09577794362608    4.28503590024129   -2.92250648713962
B         1.59618691109154    0.61976234473979    1.87316611403270
O         2.95831804859270    0.77601802561583    1.82829378141993
C         3.32946558247006    2.03332291326609    2.41103830583507
C         4.61714753179534    1.87151841214786    3.21673296994668
H         4.53069482815248    1.05386298663290    3.92398122090905
H         5.43606186369605    1.64761937734678    2.53797533101588
H         4.84445200221922    2.79245886861320    3.74706170583392
C         3.56871767776662    3.00018369502932    1.24509393483353
H         3.84814357284407    3.98920651871688    1.59625867722674
H         4.36942395393876    2.60356693111750    0.62518945721852
H         2.66872851202980    3.04817741789073    0.63754840657106
C         2.06464767443219    2.40629237353821    3.25547691460100
O         1.03615893828775    1.61059574412284    2.65015981464944
C         1.66392408086373    3.87931913096234    3.20052743563049
H         1.39475078858136    4.16579530310315    2.18933534456316
H         0.79964519878629    4.03718435137657    3.84108956688416
H         2.48047692564610    4.50299228881107    3.55429338226158
C         2.17258397278351    1.95731628748924    4.71689679928877
H         2.39886940712241    0.89590965464796    4.74815417114491
H         2.93190640388561    2.52261923670501    5.24841540936669
H         1.21112070973923    2.11168204647991    5.20171549619869
B         2.27819999999952   -1.33089999999893    0.17409999999968
O         3.07402329417943   -2.36804064590617    0.60514893912063
C         4.36315680243863   -2.29793619922854   -0.01817096999696
C         5.31352698142270   -1.68287023350372    1.01442998372012
H         4.90504000006139   -0.73121265091936    1.34254255266189
H         5.35892461733967   -2.34392435728644    1.87583849637020
H         6.31346418601240   -1.55627542257710    0.61108551655141
C         4.83606910839710   -3.70871376688050   -0.36799649906376
H         4.95546571657931   -4.27410659274713    0.55233642554485
H         5.79173687691405   -3.66584686692863   -0.88291173739206
H         4.11259261511771   -4.22625258346899   -0.98902792604924
C         4.10406022747004   -1.35790882009474   -1.24809736059715
O         2.87373844878863   -0.70663928368207   -0.89866270082845
C         5.18008895567883   -0.29871880681541   -1.48194621266522
H         6.14568361239205   -0.76911962434474   -1.64552375782167
H         4.91988064105155    0.28510299406251   -2.36137137085962
H         5.23450092844367    0.37340618210770   -0.63287198043000
C         3.85851484598126   -2.12171935335203   -2.55665378127644
H         3.05789015954752   -2.84453747106884   -2.42540533338346
H         3.54620153926025   -1.41242751978249   -3.31962339649224
H         4.76067184297727   -2.62512318837798   -2.89081891367029
H        -3.44366656488203   -3.93472633331827   -2.59012234352592
H        -4.95639371301239    1.94092832348979    0.72714966025467
C         0.23589999999750   -1.68139999999945    2.96029999999981
C        -1.06315468069050   -2.05880396850574    3.31400670647228
N         1.18104112474046   -1.54614143612623    3.87553043998579
C        -1.37548384334442   -2.19428275912311    4.65608264056743
H        -1.81782662347682   -2.24413495672032    2.56410426144795
C         0.90214695580478   -1.70524223032710    5.16259588207831
C        -0.38268297122416   -2.01031618893862    5.60441797065113
H        -2.38071661953608   -2.45722942346088    4.95889069932238
C         2.03926672239700   -1.56943202637394    6.13030451571166
H        -0.58852329401370   -2.12337682074795    6.65827725436545
H         2.96426159064237   -1.42169257300180    5.58213870343074
H         2.12186991403301   -2.46841243405238    6.73852976186447
H         1.87279716237816   -0.72428336023296    6.79611018565213
