  105
 energy: -152.897182577306 gnorm: 0.000374774050 xtb: 6.4.0 (f63f532)
N        -0.92700365820617   -2.23577132347852   -0.20775657459609
C        -2.19571699908216   -1.82982378792767   -0.38063793468509
C        -3.06381884747172   -2.53229634035332   -1.22576496465821
C        -2.61278078591344   -3.64873604899498   -1.89733148350496
C        -1.29450424730444   -4.05202276230787   -1.71189562454194
C        -0.50100789546984   -3.31093894772821   -0.85932958318109
H         0.52835928850226   -3.58731256306011   -0.68003327814679
H        -0.89891975400178   -4.91870786586336   -2.21601662152028
H        -4.08319829605137   -2.21107668673406   -1.36126136025826
C        -2.60415529863661   -0.63596274004978    0.35738661687044
N        -1.67297730358611   -0.05631370625892    1.14191673625462
C        -2.01640595256759    1.01009798172480    1.85724741346740
C        -3.27649296169323    1.57526628230579    1.82998628369574
C        -4.23951988796404    1.00681562346305    1.00336939635585
C        -3.89623492679316   -0.10627655156312    0.26478485513240
H        -4.63125952098867   -0.55933710939425   -0.37920583426114
H        -3.50073148953016    2.43560485264387    2.43922767714417
H        -1.23147828806883    1.42835966759143    2.46752125746399
Ir        0.42150000000002   -0.81650000000001    0.91329999999990
B         0.29851132029985    0.39670972747630   -0.78550314482854
O        -0.38506008247299   -0.13309013719296   -1.86452482646103
C        -0.51771675446567    0.84513474832677   -2.89956325573158
C        -0.29224349119392    0.18310730101288   -4.25710648241753
H         0.64152240370841   -0.36907222058426   -4.26329468926908
H        -0.28044174438288    0.93293744180982   -5.04378837982070
H        -1.10200746326801   -0.51666961209485   -4.45076463180360
C        -1.95587259024197    1.37889784075901   -2.83105352897147
H        -2.14776806927127    2.09547795147387   -3.62413010794989
H        -2.64194169122928    0.54060359886282   -2.93679531567722
H        -2.13816576414814    1.84262663921295   -1.86384593700609
C         0.55144070406478    1.91355679844361   -2.49570412630391
O         0.72388911112656    1.66851025692820   -1.09183000022445
C         1.91114108124218    1.65904753610595   -3.15747468397100
H         2.24282977053950    0.65367164790242   -2.90984899678213
H         1.85909534927040    1.79228912011923   -4.23400031601709
H         2.63663206069685    2.35929726575276   -2.75000529700856
C         0.13326392253401    3.36427056557918   -2.72656757710622
H        -0.72755366398327    3.62859075117526   -2.12005490553810
H         0.95564409678941    4.02102512922981   -2.45289033567034
H        -0.10171231048615    3.51910243609417   -3.77650230967940
B         1.46393585910779    0.85942758822105    1.57309024775439
O         2.81034068248574    1.12372810784034    1.48710617029368
C         3.07678077606922    2.50892386230654    1.74360140235263
C         4.29096534622069    2.62951471900851    2.66618531544132
H         4.15019883958556    2.07020625461599    3.58511256940898
H         5.16145630706702    2.22183330917345    2.15894610081940
H         4.48052680902150    3.67300381768714    2.90211227289727
C         3.41123215233728    3.14506144595255    0.38937387197382
H         3.58217393468603    4.21333272439136    0.48019546051279
H         4.31230965620040    2.67632717615200    0.00034365427688
H         2.60040927092934    2.94410332600332   -0.30466841387353
C         1.72434948828168    3.02451914220192    2.35909690345213
O         0.81009225086693    1.95650208204219    2.08274560825182
C         1.18039066375109    4.30193348475219    1.71786109294355
H         0.97597184948645    4.13551970077925    0.66542518269433
H         0.24773493893643    4.57348813444077    2.20632471345550
H         1.88695821889825    5.11859467685729    1.83484810674193
C         1.76564305410763    3.20722726176801    3.88142681662233
H         2.04603108819925    2.27722690416592    4.36830296784131
H         2.45942575112590    3.99357465734044    4.16195687169776
H         0.77069298682652    3.47555477706012    4.22943445801796
B         2.27819999999888   -1.33090000000096    0.17409999999960
O         3.22335755179780   -2.05314009780932    0.87594938490772
C         4.46975827873315   -2.05385810768712    0.16691643575451
C         5.34513602119340   -0.97770461425375    0.81717913722568
H         4.80844087911989   -0.03363929659347    0.80406715279118
H         5.51487232513694   -1.24982988628513    1.85590756554000
H         6.30286215960682   -0.88590832649275    0.31470248225670
C         5.14462753364812   -3.41681346137021    0.31477872693925
H         5.42128096629557   -3.56109000951126    1.35571798690013
H         6.04314119683211   -3.45595048579138   -0.29448193532423
H         4.47694921232580   -4.22266864177182    0.02875196522852
C         4.02967182009742   -1.68476178988238   -1.29161223566334
O         2.74549178542199   -1.06867943495963   -1.09108755242267
C         4.95433311239116   -0.70467342304560   -2.00960532855528
H         5.96362955777124   -1.10445444900218   -2.05389204752714
H         4.59461537277684   -0.54929244408208   -3.02357493428520
H         4.95996534317168    0.25269772498518   -1.50011502688794
C         3.80812256250025   -2.91565052792445   -2.18057925042652
H         3.13768287756605   -3.61645231518551   -1.69059830222745
H         3.34161885465493   -2.59650440869139   -3.10942647197619
H         4.74959220551692   -3.40633836534724   -2.40773084220582
H        -3.27188772881353   -4.19696757735196   -2.55320825317474
H        -5.23413567669095    1.42193207245943    0.94111139417186
C         0.23589999999929   -1.68139999999915    2.96030000000021
C        -1.05726636153712   -2.10223378943501    3.26369869040937
C         1.08862204131892   -1.47460597512654    4.05597020480151
C        -1.49078670477655   -2.17088752969659    4.58071611828429
H        -1.74283058465279   -2.38713943578534    2.47694252578496
N         0.67180407658795   -1.53405330689941    5.31294284992434
C         2.56396893738538   -1.19454560140200    3.87859648027534
C        -0.58708101855720   -1.84430923611550    5.57443870818097
H        -2.49754680313790   -2.47866597953018    4.82215285549658
N         3.29647944329302   -1.31908319943260    5.10745073656001
H         2.68989621858801   -0.18635771505315    3.48007605806507
H         2.96211650510181   -1.87677189787540    3.12242452274966
H        -0.85638067412375   -1.85501213298532    6.62296210595115
C         3.61506648807632   -0.30617380393121    5.94894117264097
C         3.70888049309936   -2.48605985423358    5.66044498121579
C         4.25513840383314   -0.82287240837248    7.04362393325070
H         3.36873264807951    0.71089824290422    5.71416376782621
C         4.31399163113757   -2.21737436587608    6.85940265221143
H         3.54467363429865   -3.42197579818314    5.16311207853811
H         4.63929667898850   -0.26959599684134    7.87949235354943
H         4.75175553565501   -2.93297832250516    7.52928989959621
