  105
 energy: -152.891362022758 gnorm: 0.000323585033 xtb: 6.4.0 (f63f532)
N        -0.86915255946108   -1.94084446666221   -0.46238911543871
C        -2.12129295131957   -1.45963172576198   -0.61006449522396
C        -2.94719550991358   -1.90371696555433   -1.65091928299492
C        -2.48690094914350   -2.85159553703524   -2.53632512641811
C        -1.19534476811490   -3.34875006952538   -2.36570829867125
C        -0.43777139541562   -2.86033305238812   -1.32402543892981
H         0.56931017305311   -3.21561860366737   -1.15631593248889
H        -0.79471791664105   -4.09509093340788   -3.03255716175173
H        -3.93827880081423   -1.49775075518974   -1.77355988125128
C        -2.53510405870119   -0.44858981300304    0.34936967041125
N        -1.58248425490718   -0.00154081507156    1.19744364806784
C        -1.90945961523950    0.93310531051801    2.08818265841115
C        -3.17437635068277    1.47037726624884    2.20004273707870
C        -4.17087089568586    1.01372037666234    1.33850033588979
C        -3.84286765628688    0.05219111330243    0.40904939176039
H        -4.60035328594708   -0.32057046632831   -0.26087945918413
H        -3.38402323896909    2.22087771048561    2.94523445591087
H        -1.10313167916076    1.25661426160371    2.72838006411508
Ir        0.42149999999986   -0.81650000000006    0.91330000000049
B         0.40421395713172    0.68663574406987   -0.54287478807210
O        -0.31400325367325    0.50860871090784   -1.71643611932329
C        -0.45194261618090    1.75711028850349   -2.39984502948320
C        -0.33062739106283    1.54125173757805   -3.90630121771912
H         0.57254709498057    0.98986145142245   -4.14615506856295
H        -0.32240170948100    2.49865406960884   -4.42148042911439
H        -1.18369325752414    0.96242957071103   -4.25296547274924
C        -1.85656675843477    2.28970283470292   -2.07821711869210
H        -2.05577166580639    3.21997957862887   -2.60213306482998
H        -2.58929913781549    1.54538226449833   -2.38487441011883
H        -1.96098069437589    2.44149543545669   -1.00555727436664
C         0.68159749525650    2.62150991556674   -1.75868228947278
O         0.88274923691534    1.97754295464576   -0.49472427909095
C         2.00537135256154    2.51534403184719   -2.52597649937453
H         2.28306637087999    1.46763497370538   -2.61490183945348
H         1.93395144549950    2.97637534780849   -3.50700257524816
H         2.78174950047307    3.01667190934820   -1.95249894213619
C         0.33054612620825    4.09275850953450   -1.54556433891931
H        -0.49249874335651    4.20274600649876   -0.84612314254204
H         1.19502712023446    4.60971135211498   -1.13560940062819
H         0.06486631247658    4.55301067087035   -2.49390554184394
B         1.56824323390427    0.60371712005752    1.93161225135877
O         2.94038626072969    0.71323717260427    1.96974268211260
C         3.31896081200753    1.97596690582869    2.53345004020392
C         4.55725387617363    1.80614679103944    3.41245874448645
H         4.41152018665192    1.02032045136695    4.14595909171984
H         5.40357237494602    1.53273526298613    2.78760740915826
H         4.78460287746662    2.73995171631196    3.91997926490368
C         3.64879767090176    2.90107079776651    1.35548615166783
H         3.93385680218698    3.89312311298892    1.69342764367486
H         4.47337868185069    2.46759931186447    0.79391017840909
H         2.78621731147437    2.95159890969134    0.69612144822728
C         2.02337594684758    2.41010147974230    3.29729275636838
O         1.00452755546103    1.63128768922960    2.66041576424938
C         1.67354725962883    3.89270848639346    3.18352690068465
H         1.47322969702148    4.15794295347902    2.15092355674473
H         0.77813410724519    4.09315520184968    3.76686881812649
H         2.48713574803532    4.50147053147652    3.56894155545208
C         2.03921293802083    2.00546988973300    4.77680974958788
H         2.24146754065272    0.94172658947238    4.86962031025872
H         2.77930499231685    2.57256828009981    5.33291465582531
H         1.05658632590903    2.19591024224853    5.20142949729532
B         2.27820000000012   -1.33090000000208    0.17409999999711
O         3.13393834587314   -2.29340629878346    0.66979147251296
C         4.40412296781935   -2.22249574239924    0.01072677375969
C         5.35472745001693   -1.49921992845571    0.97109461231623
H         4.91537184457056   -0.54454556978435    1.24572889770300
H         5.44991450391960   -2.09562658964169    1.87485443992073
H         6.33802865063287   -1.36090968812086    0.53213936963932
C         4.92550820273777   -3.63640404666466   -0.24763617304953
H         5.09857210466259   -4.12540777042586    0.70730600743464
H         5.86153026102652   -3.59426569448585   -0.79768548785438
H         4.20540475817464   -4.22874517454857   -0.80219884617869
C         4.08291411605516   -1.38822791833295   -1.27955290545607
O         2.83105630823595   -0.76782629002874   -0.95677237443199
C         5.10533179082067   -0.30246664956708   -1.61324298842540
H         6.08749996480839   -0.74034054664189   -1.76895390670052
H         4.79825302747923    0.20569641259002   -2.52406235777891
H         5.14981020698059    0.43156545762060   -0.81618277898708
C         3.85362233566310   -2.25673147094225   -2.52456080537362
H         3.09945582632701   -3.01229527679028   -2.32281898673627
H         3.48483135739167   -1.62194236400200   -3.32675837214334
H         4.77555663322960   -2.73249684159762   -2.84503400854764
H        -3.11095935986659   -3.19881432194234   -3.34586585494519
H        -5.17669434397835    1.40152796092642    1.39857542621887
C         0.23589999999931   -1.68139999999924    2.96029999999743
C        -1.01579578939043   -2.02228283728747    3.53295702880059
C         1.14637941613125   -1.74427196725617    3.99001678756077
C        -0.81679681469281   -2.23142930642244    4.87183053732230
H        -1.95850796762492   -2.10565847885874    3.02510320927929
N         0.50497101212579   -2.06752555003832    5.14706589198359
H         2.20636570663128   -1.59103286761598    3.96227615686514
H        -1.51618813666311   -2.50093968389948    5.64056321121750
C         1.12892555675432   -2.24230663100038    6.42877020752322
C         1.26704628727231   -0.96368915528145    7.22352704299487
H         0.53290641756521   -2.94955782135425    7.01652725592967
H         2.12696620205698   -2.66841119398179    6.29815886762564
N         2.33453177153832   -0.89035028163583    8.00893291705387
C         0.31936284145408    0.05185834055478    7.15534372147842
C         2.49707011524535    0.18608759988302    8.75946305954559
C         0.49612820964047    1.17601290839916    7.94420984459907
H        -0.52697060349566   -0.04070150944022    6.49283379792557
C         1.60766035764986    1.24889561044585    8.77015866650911
H         3.38560369569243    0.18809008498300    9.37738534051482
H        -0.22298671231075    1.98169507872955    7.91749482118664
H         1.78138658226323    2.10591402631702    9.40110068115778
