  107
 energy: -154.758655722117 gnorm: 0.000396347009 xtb: 6.4.0 (f63f532)
N        -0.84096727057547   -1.92678892031066   -0.52327508341007
C        -2.08675814112174   -1.44368728762805   -0.69971862611151
C        -2.88231864050124   -1.87481982150330   -1.76893127508340
C        -2.39451354455282   -2.81000676175771   -2.65425809654114
C        -1.10830955814403   -3.30694430067835   -2.45522748460370
C        -0.38179704556139   -2.83240954603763   -1.38428808862552
H         0.62056630327188   -3.18783064535482   -1.19262259210996
H        -0.68651299190887   -4.04205711549517   -3.12111701282041
H        -3.87067951269202   -1.47082732086861   -1.91437674936826
C        -2.53211986197298   -0.44270124450302    0.26015345315835
N        -1.61308744234403   -0.01112603593478    1.15133961955962
C        -1.97037706837190    0.91480534375295    2.03940050619145
C        -3.23717536311881    1.45660882581581    2.10772132644034
C        -4.19885347970484    1.01638838252695    1.20096033281655
C        -3.83787840179006    0.06477979507615    0.27243886916955
H        -4.56950598054189   -0.29270726936010   -0.43302840818065
H        -3.47224450976492    2.19662551353967    2.85551644105127
H        -1.19035470635726    1.22752017524443    2.71692001328277
Ir        0.42150000000010   -0.81649999999994    0.91329999999982
B         0.40829446280117    0.73096037545650   -0.49437273556958
O        -0.27195640766894    0.59291395183711   -1.69254195363501
C        -0.40736590894707    1.86907794163364   -2.32741704664897
C        -0.22472239142385    1.71985267316159   -3.83540147092531
H         0.69843705310193    1.19741086131709   -4.06265753376754
H        -0.21741796547008    2.69840763987229   -4.30848321794517
H        -1.05162898764384    1.14045671491950   -4.23909421241796
C        -1.83299960889015    2.36176588959921   -2.03792609453540
H        -2.03026797492070    3.30913097209412   -2.53077945172084
H        -2.53836995056088    1.61770061465608   -2.40313618314728
H        -1.98140177836266    2.46768392273134   -0.96499236541466
C         0.68564133489690    2.72534154690240   -1.60831814994218
O         0.86172767779426    2.02389358205979   -0.37007972784816
C         2.03642764968566    2.68594458167996   -2.33327703471869
H         2.33971501816964    1.65053713871141   -2.46913142228480
H         1.98905992338355    3.19849879577110   -3.28979148702045
H         2.78155288062206    3.17094421347253   -1.70676521710546
C         0.29409652758230    4.17609927284321   -1.33445813593313
H        -0.55957626527851    4.23386313288657   -0.66626927862516
H         1.12931702946408    4.68683880069981   -0.86118268751408
H         0.05880296810688    4.68143621759370   -2.26772407999178
B         1.52045366706214    0.60142382938699    1.98116335693043
O         2.88001814884174    0.77562041528956    2.01768547266660
C         3.20757264470900    1.97463861237582    2.73675334745773
C         4.43529208227944    1.73032546706039    3.61235492446490
H         4.29238436836890    0.86500629632215    4.25075179514496
H         5.29533252163229    1.54206944253732    2.97496344463001
H         4.63676495879189    2.60543679632173    4.22413011756019
C         3.53158516286295    3.03902244081242    1.68143222724514
H         3.76904316380318    3.99487705616232    2.13858880098547
H         4.38707186625987    2.70203668722887    1.10033188287241
H         2.68523863138967    3.13659832913329    1.00640503086738
C         1.88693746278825    2.27930786531078    3.52502605816719
O         0.90719903389566    1.51634811372014    2.80780120151441
C         1.46937833543398    3.74906977541147    3.53566059819850
H         1.26628069403467    4.09761014157008    2.52856239909048
H         0.56086254626808    3.85479217365800    4.12363722906111
H         2.24949146813976    4.35752583589186    3.98478658295075
C         1.90543999570398    1.75230759340075    4.96547534992061
H         2.14596192673506    0.69308406896889    4.97723035745648
H         2.61796827344031    2.30190066778951    5.57232171978573
H         0.91320622904715    1.86797740465754    5.39648661182446
B         2.27820000000099   -1.33089999999925    0.17409999999966
O         3.17542065595181   -2.21898582837087    0.72450089576374
C         4.43955852120486   -2.12897545096800    0.05270175451513
C         5.35496958922057   -1.29758956856072    0.95763231697301
H         4.87212912180632   -0.34781923094041    1.16912619331465
H         5.47888862825227   -1.82566051962704    1.89973676459405
H         6.33006504502978   -1.14382868636052    0.50604620104528
C         5.02994610534712   -3.52866887401318   -0.11596774575232
H         5.23345221362232   -3.94293958314602    0.86779723824276
H         5.95935483936534   -3.47591923984375   -0.67608346811260
H         4.33782805966177   -4.19257629215339   -0.62298690947349
C         4.07217785323263   -1.39792623600255   -1.28718647627936
O         2.79284180762956   -0.81596749914146   -0.99392937197800
C         5.03808597431038   -0.28755064751267   -1.69832842513386
H         6.04132033265805   -0.68462175091958   -1.82523951334475
H         4.70719525400566    0.13856188168895   -2.64225388529674
H         5.04440063886776    0.50177913107154   -0.95453384041379
C         3.87758712239073   -2.35613704857034   -2.46999393181580
H         3.16761033330787   -3.13645877673595   -2.21058947150906
H         3.46877170587467   -1.79544597209652   -3.30704208887624
H         4.82101310232428   -2.80234084880201   -2.76947554872711
H        -2.99507300544701   -3.14651626644377   -3.48556145425433
H        -5.20413558413024    1.40891113430701    1.22459382077521
C         0.23590000000266   -1.68140000000449    2.96029999999663
C        -1.03004951631423   -2.04688971025224    3.41402384383472
C         1.24907865491756   -1.68233596563125    3.92311126656682
C        -1.23407686989802   -2.31584916091319    4.75972821463181
H        -1.86402036857810   -2.14312377799183    2.73160661959818
N         1.06850920013754   -1.96461962515353    5.20000140504295
H         2.27046638330817   -1.47207665743786    3.63145602685188
C        -0.15150898853026   -2.28009974267824    5.62798420880783
H        -2.21557074698492   -2.58937230955416    5.12077221019305
C        -0.28449151954236   -2.63283811052599    7.08655708848217
C        -0.33710614045636   -1.39500151671995    7.94467886037677
H         0.59163556170520   -3.21923060349536    7.37151738140394
H        -1.18232610504454   -3.23277925933433    7.24008175128786
C        -1.45654135156763   -1.09769667411329    8.70922021696066
C         0.75294903052755   -0.53329083500397    7.98122079251861
C        -1.48328921320996    0.03480076815119    9.50661767663605
H        -2.31203844828468   -1.75890330431687    8.68951703922260
C         0.72593776072478    0.59922167921926    8.77375936678350
H         1.61583926327771   -0.76031309044863    7.37356099906681
C        -0.39152061151265    0.88475866961815    9.54242389298239
H        -2.35835901183292    0.25113354108298   10.10281174470374
H         1.58028405738798    1.25989706548844    8.79603715919419
H        -0.41050137486356    1.76561079417693   10.16776421483136
