  107
 energy: -154.759309802374 gnorm: 0.000435262548 xtb: 6.4.0 (f63f532)
N        -0.87252978290271   -2.04587021962989   -0.40413391501366
C        -2.15168898992156   -1.64677691107791   -0.53365489717661
C        -3.00146935000761   -2.25119137175892   -1.46955352623121
C        -2.52690190106416   -3.26167018531681   -2.27644283856601
C        -1.19967588410264   -3.65921648244305   -2.13478614094690
C        -0.42431721002332   -3.02138076536678   -1.18936705851883
H         0.60995816026312   -3.29739472824238   -1.04124860999679
H        -0.78473596604346   -4.44511811061245   -2.74446972182346
H        -4.02470261584995   -1.92930542593817   -1.57121435784815
C        -2.58297413186260   -0.55637041062273    0.33301656210332
N        -1.64672897563248   -0.02329106081819    1.14594028354563
C        -1.99169023680125    0.98224692128334    1.94583957630471
C        -3.26564935276384    1.50990676662543    2.00135525624234
C        -4.24524112600408    0.96830756362384    1.17281518740554
C        -3.89539347198808   -0.06594799299184    0.33214407603202
H        -4.64069554238491   -0.49542943093243   -0.31643487974709
H        -3.49183600567439    2.31607288563130    2.68025492865252
H        -1.19649237182145    1.36998851627861    2.56402258792652
Ir        0.42149999999980   -0.81649999999992    0.91330000000008
B         0.28726158372955    0.67381704429933   -0.54725874877624
O        -0.41079745768207    0.43426957502044   -1.71854503326182
C        -0.65974611279038    1.66763960022692   -2.40165149619859
C        -0.50037968434302    1.46948740703242   -3.90686921981667
H         0.45264609094036    1.00511216828362   -4.13664275289765
H        -0.57398526799631    2.42588567700427   -4.41842127992407
H        -1.29212419585506    0.81679280102623   -4.26696992981837
C        -2.11231506373273    2.06398486020628   -2.09844763272414
H        -2.39209414957703    2.96881938616813   -2.62977701160161
H        -2.76675857792265    1.25241413717472   -2.41106207858566
H        -2.24613300203239    2.21168062877634   -1.02861431516028
C         0.37882339462789    2.63563858982932   -1.74663017122734
O         0.63786867332592    2.00350706601767   -0.48611354381508
C         1.70994506840107    2.67016401733310   -2.50740390393239
H         2.08864682889423    1.65636241581069   -2.61372328040436
H         1.59739631023807    3.13876447986216   -3.48081654832385
H         2.43166875538618    3.23524445886236   -1.92233938322807
C        -0.11942682785826    4.06201090621350   -1.52136374315701
H        -0.95047720302221    4.08285475603366   -0.82283379959084
H         0.68766271209337    4.66061707855668   -1.10570284081254
H        -0.42937417344299    4.50179656130679   -2.46580974069216
B         1.49201983404569    0.69821933753149    1.86699605109695
O         2.82552056226727    1.01093522579714    1.76133302987697
C         3.10587583929921    2.25315917376626    2.42259031207361
C         4.41217758350000    2.12747152127618    3.20576612639704
H         4.37903690507156    1.28266524397689    3.88490482325665
H         5.22925109775104    1.96835800127519    2.50691270906645
H         4.60241079876900    3.03923255532309    3.76515449829292
C         3.27189897642562    3.30674865065205    1.32139852223618
H         3.45396990416957    4.29329367216579    1.73667375208881
H         4.11611225919588    3.02394495960306    0.69681578016836
H         2.38123787729540    3.31155495347459    0.69917257555072
C         1.82787397099888    2.48026703069796    3.30552359557861
O         0.87652664956567    1.57379251886698    2.73213793571414
C         1.25564619866966    3.89696502514228    3.25321529772248
H         0.94711383362991    4.14930930967726    2.24406608117884
H         0.38290133388007    3.94928334263401    3.89983064126572
H         1.99234673847211    4.61462246274494    3.60331226299646
C         2.01447363817199    2.07290936366925    4.77235819081998
H         2.33832818844505    1.03884515491631    4.83803046604723
H         2.72983502147714    2.72020470856011    5.26989417029722
H         1.05618914997085    2.15059547467367    5.28079228736386
B         2.27820000000112   -1.33090000000083    0.17410000000105
O         3.24062574786513   -2.14055314992988    0.72634859388094
C         4.46541654490613   -2.03095287611060   -0.01018315005997
C         5.37478180765087   -1.09920135757011    0.79732513142829
H         4.85741190433842   -0.15909502203032    0.96757956026665
H         5.56187195678473   -1.56296422565386    1.76219547671437
H         6.32109724299971   -0.93085950673622    0.29301342186263
C         5.12047372874057   -3.40644765222726   -0.11568672740178
H         5.35032566312506   -3.75690687816545    0.88712777846616
H         6.03971783311586   -3.33821401435297   -0.69057448759905
H         4.45686050247676   -4.12934600519424   -0.57725064236173
C         3.99976817874095   -1.40473479320458   -1.37243809915200
O         2.70870401026254   -0.86685897205012   -1.04995370306434
C         4.88626608207275   -0.27678372122471   -1.89865925862313
H         5.90128318559854   -0.63166681792895   -2.05297549026269
H         4.48781073489305    0.07205284896996   -2.84823567552078
H         4.88719011422072    0.55755561562717   -1.20581816347337
C         3.80029254192026   -2.44406588502684   -2.48346266298763
H         3.14215198549453   -3.23836956455810   -2.14268562295281
H         3.32832278798541   -1.95778297341747   -3.33376294834840
H         4.75075378296142   -2.86442640667489   -2.79780234635436
H        -3.17112880092349   -3.73171604535677   -3.00384721769117
H        -5.25583081347164    1.34775331689623    1.18700015239382
C         0.23589999999970   -1.68139999999864    2.96030000000262
C        -1.08230623035965   -1.97378921813249    3.30642183126816
C         1.16768129278827   -1.68920000782884    4.01474511184113
C        -1.45794425869243   -2.06943031153269    4.63957410360208
H        -1.83303682168718   -2.14344019027073    2.54634103364236
N         0.80112904310036   -1.76666642100332    5.28871998688160
C         2.65453677998964   -1.67308928924802    3.80339755580053
C        -0.47623595018836   -1.91363945737646    5.59997186594142
H        -2.48199013981071   -2.27384469542704    4.91639318874086
C         3.26035118768040   -3.04348368110351    3.62481786848054
H         3.11805465058794   -1.21366271868697    4.67908944016326
H         2.89061515789091   -1.09001899016607    2.91265961650704
H        -0.69939104872994   -1.94827545771620    6.65902057159890
C         2.52784145754982   -4.14777412396253    3.21417869220789
C         4.62251949284566   -3.20692251600293    3.85595272325926
C         3.13969894830525   -5.37588466244567    3.02732857078219
H         1.46698628414267   -4.05203770316586    3.03956102902914
C         5.23936132144158   -4.42994073399547    3.66465372844069
H         5.20793709649254   -2.36106359072194    4.18816827330953
C         4.49807929668115   -5.52259481314701    3.24615316971407
H         2.55114150166189   -6.22343540233442    2.70525546179598
H         6.30107338763963   -4.53213646543921    3.84128586253598
H         4.97542518705490   -6.47966756821622    3.09355947483231
