  110
 energy: -157.922200655378 gnorm: 0.000305773250 xtb: 6.4.0 (f63f532)
N        -0.86257508156490   -1.96496347552970   -0.47515825257206
C        -2.11934486210679   -1.50098482199674   -0.62386536091612
C        -2.94366831562272   -1.97289040754569   -1.65368335611531
C        -2.47365338006614   -2.92795729342964   -2.52711700289508
C        -1.17496834939905   -3.40359640906412   -2.35705837385120
C        -0.42032862937005   -2.88901844906500   -1.32480193355898
H         0.59265221473369   -3.22621493810651   -1.15685518081412
H        -0.76611812010672   -4.15315622546540   -3.01505934449606
H        -3.94217211893663   -1.58675670723608   -1.77730473390517
C        -2.54703862839716   -0.48326488746435    0.32562828046294
N        -1.61106470340902   -0.03230185433496    1.18876024296101
C        -1.95614167884287    0.90064887941857    2.07356814791934
C        -3.22370384873573    1.43746081143954    2.16114195913250
C        -4.20128811567503    0.98202364361579    1.27916716264183
C        -3.85493038318617    0.01831587908051    0.35796744250166
H        -4.59937990565173   -0.35189596200559   -0.32753606746141
H        -3.44768839146860    2.18630262780526    2.90365547578150
H        -1.16395422125165    1.22622429353903    2.72989272939104
Ir        0.42149999999998   -0.81649999999983    0.91330000000019
B         0.38611916823763    0.70376957607050   -0.53044524933007
O        -0.40804871509265    0.57590482810508   -1.66038116077316
C        -0.52556623484732    1.83976436454353   -2.32076548912142
C        -0.50392983086019    1.64127244747344   -3.83436631881828
H         0.35682617419525    1.05355628364581   -4.13579776051385
H        -0.48160312581542    2.60540860882964   -4.33632810061834
H        -1.40227120081875    1.10829857363346   -4.13720189910749
C        -1.88088652978245    2.43408425827358   -1.90914822179058
H        -2.06346454472440    3.38153057862371   -2.40752491243592
H        -2.66636072414497    1.73202133193013   -2.18278196449480
H        -1.91524358945269    2.57282798059484   -0.83019221235183
C         0.68464013993160    2.64114439845249   -1.73996125386586
O         0.93470418989941    1.96582442512109   -0.50122833471046
C         1.95252264938212    2.49176175195875   -2.58977657897862
H         2.17485138342778    1.43538222874677   -2.72004133323158
H         1.84375633446300    2.98025937577613   -3.55384788413296
H         2.78481668183980    2.94270848749429   -2.05429805485378
C         0.41511526154241    4.12244905899242   -1.48115017380733
H        -0.35029082454425    4.25526086086278   -0.72260220453831
H         1.32876546979389    4.59457761264386   -1.12739264496469
H         0.10341086609071    4.61087231516664   -2.40089036984711
B         1.52662223923680    0.65398010708020    1.90148078023371
O         2.89037502872387    0.80842901424090    1.93921162278937
C         3.23538821842375    2.06366573028511    2.54128248124296
C         4.44409318816168    1.87902648122345    3.45828236468437
H         4.27034184469357    1.08681321457966    4.17849431100604
H         5.30695314502987    1.60453009095280    2.85697644183739
H         4.66174165347925    2.80631143610264    3.98145722291646
C         3.60529197326421    3.01107341806315    1.39341393864832
H         3.85311051535849    4.00363953659577    1.75738499455029
H         4.46652899409657    2.60180172384233    0.86991160875362
H         2.77646670307902    3.05502154365318    0.69199316809109
C         1.90984307998973    2.47477859257256    3.27209745959190
O         0.92430757459878    1.65576917214383    2.63059906182620
C         1.51934083269185    3.94372483087975    3.11401165923856
H         1.34036609208099    4.17987554689317    2.07033141768163
H         0.60216258482630    4.12927370665105    3.66780910972151
H         2.30203453323524    4.58632630299378    3.50793558796008
C         1.90038234928831    2.10721896155989    4.76168725097187
H         2.11342336813430    1.04912754962888    4.88492714696088
H         2.62100086159539    2.70046216196585    5.31604993167312
H         0.90633566617051    2.29516212971864    5.16090785227587
B         2.27820000000069   -1.33090000000041    0.17409999999915
O         3.20934335879033   -2.14911354063798    0.77429403707419
C         4.44897504986178   -2.10805685449277    0.05712229310741
C         5.38732800368097   -1.19628801389531    0.85504360079252
H         4.90097144152704   -0.23685330971480    1.00485392314914
H         5.55090357773497   -1.64266795711868    1.83260738162118
H         6.34380980400519   -1.07189819484692    0.35674556302547
C         5.04600383531460   -3.51418901023449   -0.00677441337056
H         5.27778461299862   -3.84074491628850    1.00350159002294
H         5.96012859906363   -3.50580428647730   -0.59386817367068
H         4.34532561204081   -4.22305781282863   -0.43514121230398
C         4.03132298206749   -1.50015253184187   -1.32953703312391
O         2.75055031436725   -0.91520158364809   -1.05194711041242
C         4.96620636330794   -0.41509035194983   -1.86246893797398
H         5.97125922436134   -0.80792955621400   -1.98869352183323
H         4.59918976479735   -0.07357073715555   -2.82722866113458
H         4.98328387982252    0.43383829903064   -1.18770280694970
C         3.82364121342905   -2.55987828850794   -2.42029267909865
H         3.12983205293097   -3.32257057550393   -2.07781730335251
H         3.39044600637604   -2.07932038151195   -3.29420579023240
H         4.76609660128771   -3.02045878392759   -2.70054495859995
H        -3.09781209422548   -3.29698990140715   -3.32676069767727
H        -5.20743335130005    1.37164550193138    1.31659962852055
C         0.23589999999748   -1.68140000000150    2.96030000000230
C        -1.01444329217681   -2.14227695386611    3.36208812535572
C         1.22797303933561   -1.57207978911392    3.93466840896751
C        -1.27714851699360   -2.43238661950711    4.69212498517819
H        -1.80174272498257   -2.30292893618380    2.63757253600767
C         0.96468051705609   -1.86169452454355    5.26055764772847
H         2.22288441045177   -1.28061986708928    3.63385770711135
C        -0.29140166986768   -2.30555570705626    5.66021368874332
H        -2.25943364406186   -2.78952527247964    4.97330092340934
H         1.75108049757678   -1.77393205269781    5.99793930570519
C        -0.52519336831238   -2.75352075891749    7.07502602274899
C        -0.05335379648149   -4.21397955164986    7.22617613441616
H         0.03715715465254   -2.12898684673049    7.77130097515569
H        -1.58540221821694   -2.68729493253258    7.32768555242992
C        -0.24978738300695   -4.71566974011717    8.62458895002481
H        -0.61128257966619   -4.83795100489617    6.52552130674841
H         1.00686819426597   -4.26730142271659    6.97887759428177
N         0.80307139541567   -4.66325907418004    9.43265325959637
C        -1.48373271200391   -5.20090735999576    9.05477135622683
C         0.67422073867475   -5.09102828700665   10.67737739382082
C        -1.61311990494744   -5.64744905377561   10.35768932187691
H        -2.31943150482894   -5.23203642555553    8.37228782269135
C        -0.50757709198517   -5.59652620006113   11.19456068120465
H         1.56953569463694   -5.02669722802812   11.28322250286400
H        -2.55696176354126   -6.03374241503231   10.71549277272626
H        -0.56102430789718   -5.94025393114454   12.21560356032456
