  110
 energy: -157.919288317996 gnorm: 0.000348648580 xtb: 6.4.0 (f63f532)
N        -0.90997137700971   -1.96134828142717   -0.45261154135061
C        -2.07067894420704   -1.36213606641733   -0.78817960898539
C        -2.92649962842871   -1.93486054202555   -1.73828201855832
C        -2.57949079120393   -3.11742283839783   -2.35030711371587
C        -1.37116528222527   -3.71920356155192   -2.00216134481046
C        -0.58423682834009   -3.10305493746754   -1.05325662901442
H         0.35501151990408   -3.53944297920754   -0.74286736048558
H        -1.05967063585354   -4.64642995780883   -2.45528279229546
H        -3.86206639536699   -1.46064439033991   -1.98507061574204
C        -2.36064862638460   -0.10653676946024   -0.11844043331954
N        -1.49304195263401    0.27661238521497    0.84956462450129
C        -1.72361148934722    1.43196387294499    1.48077715468412
C        -2.78466500554318    2.26129050041104    1.19485951879871
C        -3.67197279078068    1.88841464975841    0.18541431471940
C        -3.44709964829917    0.70131348003913   -0.47393505866656
H        -4.11326021394920    0.40017409231388   -1.26559729551172
H        -2.92471221906984    3.17688556333170    1.74718129394276
H        -1.00218899305933    1.69127613569625    2.24076749732445
Ir        0.42149999999992   -0.81650000000005    0.91329999999990
B         0.55944059893469    0.59917989611439   -0.62591593761797
O         0.12719988709045    0.26942860624710   -1.89286773197303
C         0.18929764573442    1.40909135947123   -2.75673699512734
C         0.77795804550355    0.98350429239461   -4.10078305961515
H         1.72085070123517    0.46673759421093   -3.95633276189725
H         0.92602522592891    1.84960793335539   -4.74056756186930
H         0.08773538530572    0.29931046806110   -4.58877998193323
C        -1.24931929751285    1.89731070684313   -2.97578767529442
H        -1.27746124240757    2.72961868592718   -3.67296789608305
H        -1.83625179069084    1.07506346058734   -3.38034531755161
H        -1.69741791747220    2.19575427956302   -2.03087568399904
C         1.06498989398021    2.41973108171128   -1.93897485766447
O         0.97356207829059    1.91073659162298   -0.60047130816257
C         2.54556545729397    2.36952833805141   -2.33391113333707
H         2.91392253354350    1.35725542874282   -2.19042322991407
H         2.69253304780157    2.69103510530207   -3.36075409179424
H         3.10841223585886    3.02686912491536   -1.67564591225316
C         0.58083610457809    3.86880447684558   -1.97238125285832
H        -0.41051399949035    3.96511711841506   -1.54045067449361
H         1.26333259940559    4.48369410776086   -1.39054654131648
H         0.56780174000372    4.23366506662085   -2.99612070242692
B         1.59305369432076    0.58730422584297    1.91881212466450
O         2.96707823828888    0.65471746851099    1.94313247468477
C         3.39103184425836    1.88421787341502    2.54825683963441
C         4.61988431980624    1.63383825288474    3.42079736455672
H         4.43908813670675    0.83006187493330    4.12656039052212
H         5.45459331522348    1.34643705237815    2.78640860056101
H         4.88663427980877    2.53907739779913    3.95950318936231
C         3.75945485031227    2.83073146464710    1.39990552807892
H         4.09165134714766    3.79695745723857    1.76796441138100
H         4.55966095358034    2.37700821104392    0.81949753685824
H         2.89746728149619    2.94419744890318    0.74783980119332
C         2.11043111230839    2.34384942296935    3.32490468402300
O         1.06460751569825    1.60932316784302    2.67350147447605
C         1.80785647545562    3.83866352484045    3.23601233403225
H         1.60654898939977    4.12855331975705    2.21007838032198
H         0.92559302614833    4.05881654202999    3.83191257129898
H         2.64427263275389    4.41430688608471    3.62300586547619
C         2.11400551121644    1.91411383343589    4.79704527609433
H         2.27030708670223    0.84142114360166    4.86884121896369
H         2.87917798626779    2.44291779383893    5.35689249973132
H         1.14124379554308    2.13777319052557    5.22836285327332
B         2.27820000000043   -1.33090000000018    0.17410000000056
O         3.01869006138833   -2.40175476270290    0.63275449363874
C         4.31952315749736   -2.40284454460515    0.03165770129812
C         5.27668374813963   -1.80037726242542    1.06598101666565
H         4.91426029282384   -0.81577717677062    1.34851256082194
H         5.26494213363994   -2.42981408810480    1.95235048851989
H         6.29174475935743   -1.74251283154166    0.68554185643772
C         4.74040706409395   -3.83836740393720   -0.27860759375769
H         4.83552248014322   -4.38443185502427    0.65608935776992
H         5.69878172481905   -3.84408086687957   -0.79034891394078
H         4.00002933595617   -4.34370688723630   -0.88948609094833
C         4.11623084931229   -1.48302376285235   -1.22056036432208
O         2.93663563133355   -0.73726739842549   -0.87801903095227
C         5.26971691703411   -0.52118671948493   -1.49856117630522
H         6.19559566661367   -1.07514684301066   -1.62684077044676
H         5.06615782748882    0.03377298845744   -2.41113121909995
H         5.37605629986443    0.18830271082468   -0.68517839635157
C         3.79516846013237   -2.27002680196175   -2.49837249590407
H         2.95471674059148   -2.93667630166340   -2.32474436379843
H         3.50733812207864   -1.56776740294326   -3.27744499285073
H         4.65712350527265   -2.83791439815174   -2.83526924111984
H        -3.23124440294541   -3.57008968551353   -3.08247146755521
H        -4.51136154152811    2.51466762821848   -0.07672858915055
C         0.23589999999999   -1.68139999999958    2.96029999999956
C        -0.98445707542156   -2.05638058598848    3.53254855675262
C         1.35295203599512   -1.64467821889016    3.80885851879430
C        -2.26877635646649   -2.18778474191487    2.75952078126165
C        -1.05905881448896   -2.30166492195421    4.90430212792860
C         1.26485122538173   -1.87381539955658    5.16859601410909
H         2.32029466955067   -1.44327156053804    3.37368722682272
C        -3.25280958647643   -1.09426246772739    3.18645013551518
H        -2.08196098695855   -2.10902481441114    1.69329633618093
H        -2.72206322717460   -3.16471988017758    2.94303059743583
C         0.04182264065904   -2.20455793498149    5.72910105709763
H        -2.01049276882281   -2.59580589810219    5.32696993882723
H         2.14946662087339   -1.82238563557740    5.78846885601741
C        -4.44908641385921   -0.96941379336143    2.29128757976472
H        -3.60605021740455   -1.28764102798278    4.20358701665671
H        -2.73421228217751   -0.13210820707333    3.21109299039691
H        -0.04665800014344   -2.40449721921970    6.78731228754785
N        -4.63262890013215   -1.88914089717948    1.35457565493955
C        -5.33775029884296    0.09500032755679    2.46062898749828
C        -5.68721445796901   -1.78929822186256    0.56108554074794
C        -6.43618112266762    0.19407393614841    1.62956188054614
H        -5.15693943461632    0.82645322630216    3.23377526014475
C        -6.62069925209056   -0.77193166159739    0.64911624292789
H        -5.77917036557560   -2.57416888965661   -0.17933566482303
H        -7.13836128153316    1.00823083769231    1.73944062575062
H        -7.46500247181426   -0.73518202962746   -0.02142949725499
