  110
 energy: -157.923394593330 gnorm: 0.000359501565 xtb: 6.4.0 (f63f532)
N        -0.95648416268575   -2.18251770407414   -0.22631090784500
C        -2.24437938725852   -1.80544557153605   -0.29398223950114
C        -3.14702948758541   -2.48186204126227   -1.12459523565271
C        -2.71213219075110   -3.54447294617455   -1.88738715237252
C        -1.37335906509517   -3.91637424800732   -1.81176048020144
C        -0.54439338504514   -3.20192930207421   -0.97052247155313
H         0.50346721895065   -3.44909495438021   -0.88015475318217
H        -0.98807720153004   -4.73821007990206   -2.39294537058371
H        -4.17910665523365   -2.17745491290549   -1.18186406919248
C        -2.63170527917561   -0.65989597097788    0.52599169645629
N        -1.64966608320506   -0.04503616249256    1.21640543977848
C        -1.95783475143411    1.00763573876900    1.96781074496204
C        -3.23903773163632    1.50774935843049    2.09074094433642
C        -4.26519532739513    0.88223636266806    1.38906578525841
C        -3.95385106657219   -0.20470457346505    0.60020110152611
H        -4.73695481842575   -0.70112016996223    0.05168438611627
H        -3.43395493530166    2.35743043949324    2.72481391963465
H        -1.12643885622878    1.45900653293615    2.48772810716012
Ir        0.42150000000011   -0.81650000000010    0.91329999999997
B         0.16713074882862    0.51116472546937   -0.68310944338209
O        -0.55801813982859    0.07280973254233   -1.77894264001942
C        -0.90657530897284    1.17873657801937   -2.61654877419514
C        -0.78922342447814    0.77442537465973   -4.08429512909019
H         0.17625569918639    0.32202537143623   -4.28444601411152
H        -0.92660810030544    1.64246803586186   -4.72403543030442
H        -1.56006478077244    0.04295218224616   -4.31515754647239
C        -2.36882575453585    1.53433549345576   -2.30900366378371
H        -2.72279566943044    2.33397292682355   -2.95295022548449
H        -2.98270075711884    0.65027151166889   -2.47111530689588
H        -2.47208491310650    1.83003305934878   -1.26677022244976
C         0.09419044941113    2.28459541833402   -2.14926315790748
O         0.43266901662112    1.85585288279094   -0.82318827891514
C         1.39193774396363    2.27604562792268   -2.96580937052118
H         1.81184774209879    1.27301071253622   -2.95912191862735
H         1.21815383736966    2.60692490852165   -3.98566403908879
H         2.10825695329126    2.94271400583590   -2.49173543608028
C        -0.47592545026744    3.70098953305939   -2.11027698513883
H        -1.28264710964484    3.78135061513782   -1.38790004320463
H         0.30997301641307    4.39417614107483   -1.81969714756691
H        -0.84278164267604    3.98131689818810   -3.09435396378929
B         1.51739582916978    0.81189692251701    1.61875980444575
O         2.77935179708985    1.22644542244833    1.26974054525169
C         3.04665924032375    2.54070177609749    1.77694247274009
C         4.44640721138862    2.56322151602167    2.39368989033604
H         4.57278629849614    1.76264708129054    3.11588145871713
H         5.18153403081546    2.41886429472152    1.60553466804964
H         4.63338247007942    3.52114400203172    2.87055050282306
C         3.01182336549440    3.49626490985656    0.57787835277664
H         3.15960584339786    4.52682995657858    0.88632866257346
H         3.80528680541643    3.21746404982425   -0.11194856010946
H         2.06331652300197    3.38438564994365    0.06101116307042
C         1.87130118802859    2.77914981876483    2.79460456159291
O         0.95730682649413    1.71703588212071    2.49314403977361
C         1.13587351991221    4.11028679424273    2.62553782279985
H         0.68123461347669    4.17329249166913    1.64215590817563
H         0.34636315273866    4.17215187235669    3.37095085883092
H         1.81737581363794    4.94371951894961    2.77013849959090
C         2.28437691423821    2.62635252014826    4.26313246864567
H         2.75690914985093    1.66314286246411    4.42502726266769
H         2.95808842986414    3.42396634918844    4.56170657496408
H         1.39099648370752    2.66763667156439    4.88216952715364
B         2.27819999999987   -1.33090000000010    0.17409999999867
O         3.34898527451395   -1.80048915373310    0.89068435986172
C         4.50413884494862   -1.95518213934737    0.05918584748140
C         5.67778268444458   -1.25059922998593    0.73800635248996
H         5.41455172597823   -0.22486357929704    0.97006311534140
H         5.89615163927123   -1.75447243689150    1.67593971884109
H         6.56153632662623   -1.27791380786771    0.10732650108228
C         4.80521560202779   -3.45676827585300   -0.03151394807561
H         4.98625976279795   -3.83196279145161    0.97237205580098
H         5.68429313324242   -3.64124922618699   -0.64092690446100
H         3.95409110635243   -3.99216823742594   -0.44286129648546
C         4.05019033397643   -1.31682021515438   -1.30481122164476
O         2.62818139623239   -1.19742072631000   -1.15294778587321
C         4.58531359047063    0.10520323883684   -1.50789012614461
H         5.66868262231100    0.11775883173792   -1.57457901559836
H         4.17079633561772    0.50525214415035   -2.43020223136049
H         4.24310484301640    0.72770211637030   -0.68607679104755
C         4.36056848291428   -2.15502763192597   -2.54580750691450
H         3.87805944257888   -3.12559968284599   -2.49824917715823
H         3.98499989908840   -1.63555158992966   -3.42377399251048
H         5.43384933042857   -2.28721478239631   -2.64924797684451
H        -3.39762933055809   -4.07249267383582   -2.53299820467405
H        -5.28264036990047    1.23613175916527    1.45955179515307
C         0.23589999999943   -1.68139999999909    2.96030000000137
C        -1.05801325926683   -2.09147748240513    3.26480947473062
C         1.11768899735805   -1.53417253459333    4.04753340263009
C        -1.48094857607018   -2.18548511985711    4.58495851293527
H        -1.75650508907365   -2.35394461948903    2.48105017536953
N         0.70705536313599   -1.62412857860615    5.30580085108018
C         2.58994689917580   -1.31628371311993    3.85202381397029
C        -0.55855846297198   -1.90568527615604    5.57324968626659
H        -2.49125469993024   -2.48138734773127    4.82813564614135
C         3.37000881085496   -1.31285106576891    5.17159191859870
H         2.73788593804333   -0.38068881646774    3.31287938450966
H         2.97028323293621   -2.09245982366815    3.18631563456780
H        -0.81677557106209   -1.94105287044937    6.62466544121691
C         4.83754908275206   -1.11325590408989    4.93188218199657
H         3.20006802587999   -2.26516895364395    5.67712438164547
H         2.97812783476314   -0.52514821084388    5.81555567489205
C         5.61873952581800   -2.15566335457701    4.44552899898365
C         5.44741926394495    0.10997631757160    5.17875882145868
C         6.97079402748695   -1.97989914150093    4.21068885963030
H         5.15848519711975   -3.11480478489194    4.25587059054477
C         6.79944165348335    0.29209218151221    4.94100798863298
H         4.86014072943825    0.92702830604143    5.57411597361635
C         7.56569001473077   -0.75269140964229    4.45497486066570
H         7.56559542864932   -2.80142869519258    3.83664740885115
H         7.25611994292538    1.25113688316347    5.13902993106283
H         8.62111315328896   -0.61378288538848    4.27085568071645
