   95
 energy: -140.483926439348 gnorm: 0.000277609239 xtb: 6.4.0 (f63f532)
N        -0.95364019266089   -2.00784072423380   -0.35122118985345
C        -2.18742611400930   -1.49980485897967   -0.53201376216027
C        -3.08381316347903   -2.09155376670674   -1.43178566912122
C        -2.69891998154795   -3.19818729101747   -2.15594521726327
C        -1.41464362760754   -3.70389464123312   -1.96813019180708
C        -0.59185379756788   -3.07527966136549   -1.05734981925864
H         0.40919506222385   -3.43842889917989   -0.87132132018333
H        -1.06958311180343   -4.56685200472598   -2.51391244656319
H        -4.07525166236242   -1.69039596711139   -1.56245745833497
C        -2.51614268679450   -0.31230980995554    0.24573907039447
N        -1.57100350799321    0.12544661654468    1.10576250761547
C        -1.82930522554675    1.20555528192012    1.84133337405412
C        -3.00902401050362    1.91600805655856    1.76341969570962
C        -3.98430106803327    1.49074281599773    0.86461707648149
C        -3.73097190989661    0.36990226175353    0.10401927433756
H        -4.47163175923587    0.02902718337895   -0.60013040944433
H        -3.16673005791328    2.77949379914224    2.38902043836210
H        -1.04046573933503    1.50171880724244    2.51570112338358
Ir        0.42150000000010   -0.81650000000011    0.91329999999992
B         0.39653475374917    0.60093916529420   -0.61480040540852
O        -0.12383618289621    0.26923650299226   -1.85027831090796
C        -0.21342025703052    1.43620796721530   -2.67609287885745
C         0.21045536240269    1.08888974683646   -4.10095410001418
H         1.17454068817478    0.59144564579671   -4.10198016432247
H         0.26197448951412    1.98992362737946   -4.70680794292264
H        -0.52149186423641    0.41318009951714   -4.53680937150828
C        -1.68440602720775    1.87634873965981   -2.67950118865561
H        -1.83545178517586    2.73048022488540   -3.33304007874364
H        -2.29476519255547    1.04724185962458   -3.03220307380968
H        -2.00475617099617    2.12575746564237   -1.66983269892973
C         0.72150529529018    2.44866622504065   -1.93647642016066
O         0.73740604073491    1.93520732616087   -0.59694558878714
C         2.16575492613499    2.38885961934931   -2.44844640593911
H         2.52893619483443    1.36715752004050   -2.36574785216348
H         2.23870983329024    2.74131541347895   -3.47320127620627
H         2.78840793636365    3.01461739930089   -1.81374403042918
C         0.23739859071897    3.89705455297599   -1.93677726521330
H        -0.71247770316710    3.99715835902774   -1.42066734669316
H         0.96871434552094    4.51697314010521   -1.42365379269085
H         0.13373362788412    4.25265726814283   -2.95870215052354
B         1.60099036975886    0.65126789903318    1.83684666425270
O         2.90860071756006    0.99750309535147    1.61103150782497
C         3.24896282062627    2.20028182200788    2.31537702518858
C         4.59404073424880    2.00827474248914    3.01854032269885
H         4.58304537180746    1.12208304592740    3.64493557391932
H         5.37078237058787    1.88099300032605    2.26841834533532
H         4.83131650652828    2.87977927439518    3.62188587012600
C         3.38630172375569    3.30095530303438    1.25727992828177
H         3.60658648641097    4.26319440113110    1.70945722541861
H         4.19740055049054    3.03192806828393    0.58421479648612
H         2.47085278155505    3.35341753277555    0.67466956640078
C         2.02793988800441    2.41129136195920    3.28414933658354
O         1.05622445410541    1.47847438199505    2.79263631985789
C         1.41544405269659    3.81276523569754    3.24446602704778
H         1.04621169584753    4.04305363939801    2.25038202655309
H         0.57731577736098    3.84821897448695    3.93634433869395
H         2.14838456037891    4.55567635148556    3.54590004377276
C         2.31954034080246    2.04359279066011    4.74420569463864
H         2.69877568390439    1.02895454571714    4.81477059563294
H         3.03325002806649    2.73435092777379    5.18229959142708
H         1.38911301801839    2.09231756653918    5.30520151167928
B         2.27820000000026   -1.33090000000080    0.17410000000049
O         3.12747565975620   -2.27510220427168    0.71308528685984
C         4.39474512274107   -2.24258237635828    0.04456182747410
C         5.34265361111474   -1.43785436091825    0.94047481397488
H         4.91841079762384   -0.45177164152350    1.10998304240441
H         5.41731814989841   -1.93896377159444    1.90300591894045
H         6.33328677443752   -1.35852545584478    0.50377517433553
C         4.92690745248453   -3.66641190498971   -0.11043184259237
H         5.12393153635180   -4.07512074630619    0.87716265804781
H         5.85178915020261   -3.65863973302579   -0.68031765230792
H         4.20300355466444   -4.30796148216200   -0.60182324220128
C         4.05341832250070   -1.50699446239016   -1.29703085963659
O         2.82523676054798   -0.83035789217587   -0.98563524320528
C         5.09429410881802   -0.48448040449976   -1.74833845825696
H         6.06391139866898   -0.96067795464173   -1.86474481204614
H         4.79244738545314   -0.06451460816701   -2.70467192132171
H         5.16557218625386    0.32441183308689   -1.02933078976490
C         3.75836604233821   -2.47242250558470   -2.45295645276743
H         3.00108189976444   -3.19270924570110   -2.15551380200971
H         3.36630418946436   -1.90220124505198   -3.29166255410508
H         4.65884997463640   -2.99169011725811   -2.76657094346511
H        -3.37911233715105   -3.66163099873464   -2.85427767501114
H        -4.91707200669863    2.02475444095783    0.76382097484407
C         0.23589999999911   -1.68140000000296    2.96029999999814
C        -1.08051191061727   -1.99146729717676    3.30779785340599
C         1.15260168493274   -1.62541488720165    4.00635585349387
C        -1.47749364885072   -2.11984083421683    4.62781056522409
H        -1.81874407485303   -2.13796787983275    2.53202518755644
C         0.77652022458488   -1.75463370244017    5.33431284399108
Cl        2.83263735218976   -1.41348183768872    3.65366747765591
C        -0.55110662255031   -1.98599453772129    5.64838788124147
H        -2.51146013369416   -2.33383705173295    4.85776269472650
H         1.52566218459647   -1.68570624593023    6.10664993641818
H        -0.85263239547270   -2.08229535533803    6.68006365477161
