   95
 energy: -140.482846804527 gnorm: 0.000163365760 xtb: 6.4.0 (f63f532)
N        -0.92569243878987   -2.03026145492364   -0.36427195978617
C        -2.17516859174315   -1.55706226809215   -0.52818280956969
C        -3.05326426598885   -2.14902955192573   -1.44506702049810
C        -2.63583980672584   -3.22380129040477   -2.19934763855185
C        -1.33818850366258   -3.69760859326169   -2.02337655909558
C        -0.53281121050890   -3.06807896676679   -1.09731945774394
H         0.47869033362427   -3.40529540419001   -0.92032116734209
H        -0.96927139554445   -4.53659038407940   -2.59059226131983
H        -4.05531924897292   -1.77277919365162   -1.56813990980000
C        -2.54319165462342   -0.40910341728706    0.29263020353019
N        -1.60074339375591    0.05092428606949    1.14286879819405
C        -1.89570524908628    1.08877592905627    1.92199114090327
C        -3.11564315170731    1.73390949249020    1.90246513534309
C        -4.09166658861508    1.28375013404452    1.01768098946684
C        -3.79814667144792    0.20634788850714    0.20958900654752
H        -4.54070326331473   -0.15361870685251   -0.48283417788180
H        -3.30185198543955    2.56613144866870    2.56175799000006
H        -1.10239281653417    1.41094419260132    2.57844181307681
Ir        0.42149999999993   -0.81650000000006    0.91330000000009
B         0.40914675083728    0.59928015804754   -0.61784375987730
O        -0.21214170595032    0.29771370464111   -1.81644187428982
C        -0.29588144681406    1.46964107938159   -2.63435841180990
C        -0.01284341128449    1.10238614835405   -4.08885660827451
H         0.91544506138216    0.54672683620201   -4.16948471732921
H         0.04365356438419    2.00087762441802   -4.69794737531087
H        -0.81860096911847    0.47486854643205   -4.46219528508960
C        -1.73307276320051    1.99678610257056   -2.51536088708296
H        -1.88654822989821    2.86499970000034   -3.14923102632102
H        -2.41815141992199    1.20818728268873   -2.82046276177645
H        -1.95323241514509    2.25280745313148   -1.48083332587076
C         0.75580380653025    2.42103732075184   -1.97477950090594
O         0.85045727411866    1.90213944017567   -0.64092687759199
C         2.14847483873247    2.27944360402701   -2.60120429573172
H         2.45629618188337    1.23789217220626   -2.54934890657941
H         2.16126627343406    2.63365477537811   -3.62793265988806
H         2.85472451254641    2.86342003183653   -2.01576899273872
C         0.35940993129558    3.89556520099699   -1.93631254123519
H        -0.53437833431038    4.04886103373813   -1.33967118015395
H         1.16742015998334    4.46951203837119   -1.48905313339343
H         0.18842710372524    4.26061938277966   -2.94585755351706
B         1.57388879886896    0.64200126799894    1.86474044547170
O         2.94300909916841    0.76604891430110    1.88835296473084
C         3.31177300382347    2.04457799659368    2.42516027476964
C         4.55200361047355    1.90100337383853    3.30572222189768
H         4.41095126352073    1.13513667785270    4.06127472906042
H         5.39815653699630    1.61335999147114    2.68683730926245
H         4.77813989436968    2.84819758029165    3.78800051301302
C         3.63478519002922    2.94209609528775    1.22463126494283
H         3.91079565653431    3.94463634911669    1.53764247940840
H         4.46383582151905    2.50171901834314    0.67523768232760
H         2.77231452794328    2.96894849295698    0.56365460984251
C         2.01311998354428    2.48864392761291    3.18109021707563
O         1.00182550720216    1.66979642812318    2.57924529897713
C         1.63799455749153    3.95913714513456    3.00477308760274
H         1.42055330220144    4.17492384729875    1.96411680039060
H         0.74710874553929    4.17122582269513    3.59082908967913
H         2.44562733170164    4.59743808600133    3.35261136450599
C         2.04000390368793    2.15233739223339    4.67717867160633
H         2.26920317716582    1.10065464366721    4.82326905971736
H         2.76713825650528    2.76389349642427    5.20270850794545
H         1.05368880932536    2.33917938451660    5.09567409451844
B         2.27820000000040   -1.33089999999982    0.17410000000028
O         3.09014760056759   -2.31552871746213    0.69738130443710
C         4.38089175658536   -2.28124024993459    0.07558218209593
C         5.32077146086157   -1.58151360394386    1.06338999193129
H         4.90629302977617   -0.60941048989342    1.31520824666757
H         5.36423863286121   -2.17320029420062    1.97451908189926
H         6.32316032537355   -1.48026194707007    0.65916337926251
C         4.86907019784229   -3.70996122710293   -0.16348003116449
H         4.99527681550654   -4.20148041332779    0.79763869634133
H         5.82420930353914   -3.69698838555818   -0.68085532077148
H         4.15131653757211   -4.28230336548159   -0.74153031970475
C         4.11808707527227   -1.44153513846466   -1.22444208148295
O         2.87574587318811   -0.78210581219630   -0.93571858098981
C         5.18231348973344   -0.38962507975481   -1.53241927965921
H         6.15454121591823   -0.85920517144645   -1.65331833175713
H         4.92142718872651    0.12161601326635   -2.45563717368404
H         5.22477554781572    0.34733477355663   -0.73807551044098
C         3.89167138596035   -2.30689803125096   -2.47152520838154
H         3.10540478717075   -3.03358996165848   -2.28703177426348
H         3.56761246687799   -1.66344937220483   -3.28598103492283
H         4.80446189258149   -2.81628969792023   -2.76509909666707
H        -3.30210992421577   -3.68700943325288   -2.91111881758465
H        -5.05657409173834    1.76481655453956    0.96398910697285
C         0.23589999999866   -1.68140000000047    2.96030000000052
C        -1.04706869768925   -2.05812640445554    3.35343898064542
C         1.20765648454688   -1.52939188693017    3.94836061295494
C        -1.37636867977137   -2.18380033036185    4.69308788360327
H        -1.80853887090283   -2.25750699498509    2.61314770451730
C         0.86562678016785   -1.66494476404734    5.28079959100481
H         2.22502001893696   -1.30842306495526    3.66643563435712
C        -0.42383867872862   -1.97906032480087    5.67700168718246
H        -2.38359885603259   -2.45139204194360    4.97870084049740
Cl        2.09194811972047   -1.45187020792985    6.49956683161715
H        -0.66910140395721   -2.07631266475648    6.72270677325005
