   95
 energy: -140.483925566983 gnorm: 0.000267540429 xtb: 6.4.0 (f63f532)
N        -0.95389239315142   -2.00806032302622   -0.35085044377561
C        -2.18779952349575   -1.50019572080189   -0.53128238611095
C        -3.08459517089225   -2.09246209906605   -1.43031862743934
C        -2.69991482952507   -3.19930903180993   -2.15426184683820
C        -1.41546301949254   -3.70474963570807   -1.96692940788181
C        -0.59232400707839   -3.07572161394275   -1.05674430336406
H         0.40894297517434   -3.43854155374345   -0.87124261945903
H        -1.07052369657391   -4.56779157793635   -2.51265644268273
H        -4.07620781420682   -1.69158735712591   -1.56053095527865
C        -2.51622270528508   -0.31232168142268    0.24600847558267
N        -1.57087431678138    0.12575070574193    1.10565104192801
C        -1.82889112661836    1.20637186533375    1.84058664897989
C        -3.00846354674695    1.91701793708090    1.76238053327893
C        -3.98399643469232    1.49133987595769    0.86404542315118
C        -3.73098669311076    0.36997792605058    0.10412405946008
H        -4.47184811696515    0.02875490916994   -0.59964601256234
H        -3.16583456636849    2.78102090904011    2.38735198005137
H        -1.03983085672539    1.50292058730830    2.51452567617482
Ir        0.42149999999991   -0.81649999999998    0.91329999999995
B         0.39670235078223    0.60069172349646   -0.61500432971391
O        -0.12416842452984    0.26898151483330   -1.85021156081672
C        -0.21364500502117    1.43589510710229   -2.67616801221838
C         0.20932568224473    1.08816312982879   -4.10118660860044
H         1.17319950366433    0.59031793734205   -4.10261881022571
H         0.26092953412181    1.98906203570240   -4.70722977135288
H        -0.52312205428745    0.41267551164542   -4.53655229638765
C        -1.68444092658917    1.87663800322129   -2.67884192721759
H        -1.83548584509035    2.73082978301921   -3.33229726980024
H        -2.29536167859089    1.04778980132623   -3.03118006557559
H        -2.00410413352084    2.12619913853013   -1.66899254753095
C         0.72207307233714    2.44804049158568   -1.93713668755356
O         0.73832651393204    1.93479059875887   -0.59752447158523
C         2.16604576244633    2.38752505274886   -2.44979713322242
H         2.52879619155110    1.36566044664820   -2.36724457734506
H         2.23866751711762    2.73991995826395   -3.47459984837971
H         2.78930366152515    3.01300564694571   -1.81541412320673
C         0.23857318176202    3.89663451662786   -1.93739649845943
H        -0.71087913033884    3.99721527637201   -1.42059780442214
H         0.97051447795675    4.51635321756915   -1.42492557148655
H         0.13430123257879    4.25209003088869   -2.95930810438814
B         1.60115193751958    0.65153607171308    1.83631327868700
O         2.90892117071575    0.99732395586291    1.61061608489437
C         3.24953280091825    2.20028452726985    2.31450587369881
C         4.59428615470412    2.00803973753264    3.01825041422515
H         4.58267458610549    1.12225313154539    3.64520548720007
H         5.37120847156577    1.87991616828805    2.26845747676739
H         4.83178980510173    2.87981335430882    3.62111410675941
C         3.38775060091698    3.30039424958290    1.25593295096531
H         3.60823748676153    4.26273249693998    1.70779410242137
H         4.19903864899641    3.03074664022035    0.58334255433967
H         2.47258308557347    3.35298526722931    0.67289293180661
C         2.02824664454708    2.41222903483439    3.28275681113536
O         1.05644586847100    1.47929461142020    2.79164207416373
C         1.41605964606961    3.81380663822431    3.24190787684574
H         1.04751796320384    4.04362841829762    2.24746185819796
H         0.57748410279088    3.84979548630309    3.93321743455849
H         2.14894787571608    4.55674390561049    3.54341594635378
C         2.31928597350931    2.04554618596577    4.74318312189093
H         2.69825526613018    1.03087105438048    4.81460480068562
H         3.03300193291911    2.73645506041731    5.18103014298307
H         1.38866939893940    2.09488355916474    5.30381429054463
B         2.27820000000020   -1.33089999999983    0.17410000000060
O         3.12721258648556   -2.27506452075264    0.71355269679633
C         4.39471692713817   -2.24295850067846    0.04549391065371
C         5.34272894487771   -1.43914073119394    0.94210560487445
H         4.91906140099759   -0.45285215792162    1.11180444831920
H         5.41666552876348   -1.94064659611122    1.90448706255640
H         6.33359740879384   -1.36028797255515    0.50585193624179
C         4.92609433355856   -3.66707984808816   -0.10966764640448
H         5.12218023896396   -4.07624339189235    0.87792830995846
H         5.85136348513248   -3.65974204189961   -0.67893067168990
H         4.20208806573901   -4.30798943368088   -0.60174316571450
C         4.05431026100096   -1.50676466249251   -1.29605880016745
O         2.82566714347975   -0.83057477173088   -0.98547961062570
C         5.09521887899464   -0.48361553684354   -1.74587576979619
H         6.06507033345815   -0.95940591654208   -1.86201497829991
H         4.79387017226638   -0.06294794586848   -2.70205892687754
H         5.16572772628302    0.32469308370162   -1.02615135684192
C         3.76065437539958   -2.47161420234869   -2.45281092470448
H         3.00295783908665   -3.19200340472881   -2.15668686089828
H         3.36970631950066   -1.90100465386660   -3.29176458102536
H         4.66151190676772   -2.99078626112932   -2.76551841369248
H        -3.38042379398235   -3.66315473753275   -2.85201978792807
H        -4.91670173770221    2.02543575290886    0.76310465549073
C         0.23589999999922   -1.68139999999674    2.96030000000045
C        -1.08055232064679   -1.99152091801891    3.30758613109095
C         1.15235595758318   -1.62495169799657    4.00655136228490
C        -1.47785553768518   -2.11947380033522    4.62754676978335
H        -1.81861169873157   -2.13827009659066    2.53169305161420
C         0.77596837440163   -1.75387516542016    5.33444679062352
Cl        2.83240846667486   -1.41276637747300    3.65422197312959
C        -0.55172115003300   -1.98523445148547    5.64829082377911
H        -2.51187467114206   -2.33342351213699    4.85730483952527
H         1.52490318619128   -1.68464529927841    6.10695689744179
H        -0.85346006028698   -2.08123007319213    6.67993278823855
