  102
 energy: -150.421161629907 gnorm: 0.000327681757 xtb: 6.4.0 (f63f532)
N        -0.93476395627265   -1.98058245585567   -0.41396176269542
C        -2.17137271401583   -1.47340497715899   -0.56815131723947
C        -3.01275241844089   -1.92412262716484   -1.59260710873032
C        -2.57675156381272   -2.90636684374426   -2.45470075196483
C        -1.29809653571297   -3.42790208073340   -2.27803522822592
C        -0.52477849730605   -2.92887002635044   -1.25069531312060
H         0.47583221066511   -3.29949638500296   -1.07939327929854
H        -0.91520842715656   -4.19797358224393   -2.92761371321995
H        -3.99373390407861   -1.49776456990226   -1.72435492385140
C        -2.55893694124060   -0.41726900989460    0.35962799964200
N        -1.59350704310608    0.05192672886094    1.17645776579285
C        -1.89287080023318    1.03460345546458    2.02227004573638
C        -3.14796418602106    1.59860479223136    2.12088556154517
C        -4.15983204637173    1.11545040511854    1.29509310708877
C        -3.85737773083775    0.10485122198120    0.40834559457494
H        -4.62866177165723   -0.28770099213933   -0.23334251247889
H        -3.33673572189062    2.38571342135232    2.83286518824400
H        -1.07682959683997    1.37097045188786    2.64423925015505
Ir        0.42150000000000   -0.81649999999993    0.91330000000008
B         0.30974968973700    0.65602450613277   -0.56248189353634
O        -0.30347249416533    0.40161777964507   -1.77566876980627
C        -0.51862753598588    1.63001160426561   -2.48066285195472
C        -0.25624179675514    1.42631800023818   -3.97005617341267
H         0.71144081991813    0.96297902095963   -4.13003803918490
H        -0.29514641879984    2.38086830496945   -4.48874614858491
H        -1.01995226736266    0.77025299884802   -4.38105292248869
C        -1.99056261134325    2.01688306224045   -2.27451048308549
H        -2.24177313956431    2.91396759776578   -2.83264498639311
H        -2.61770901812808    1.19658079091373   -2.61867647328411
H        -2.19305334585934    2.17565457350785   -1.21682821081789
C         0.46594336176031    2.60724608137746   -1.76202452994201
O         0.61594592621742    1.99646152281869   -0.47306502275796
C         1.85436125196836    2.61540433480472   -2.41295725465269
H         2.22683563191259    1.59536206303234   -2.47464891391437
H         1.82699268775425    3.07235007143535   -3.39798058785382
H         2.53386807181701    3.17827324927651   -1.77787952794456
C        -0.03864518203641    4.04040605805306   -1.60813494489383
H        -0.92217247917358    4.08259029059264   -0.97806925948830
H         0.73730956689631    4.64510721956620   -1.14455259858557
H        -0.27021885154968    4.45896368790416   -2.58421380026865
B         1.57695002062105    0.67409587944580    1.83118195383867
O         2.80321974440007    1.17241892247301    1.49601015470380
C         3.12442119053662    2.33935112282506    2.26865779773714
C         4.48307621590050    2.12432069417307    2.94199681370517
H         4.49418905711093    1.20102847643239    3.51183065852135
H         5.24736460359443    2.04916680392769    2.17313644337490
H         4.72201058944063    2.96142606040506    3.59054037187443
C         3.24110159457876    3.50839725414678    1.28519305055869
H         3.42688301031441    4.44292948577281    1.80570677519655
H         4.07052501773933    3.30981527794306    0.61052989088982
H         2.33471487974237    3.57930464172689    0.69239182136058
C         1.91276083562467    2.46434160859689    3.27008350722968
O         1.05252770464627    1.37998462790619    2.89179088188948
C         1.10310056083649    3.75769830501890    3.12799646578894
H         0.69780651694752    3.84142244023175    2.12408747515031
H         0.27168874485337    3.72690953041913    3.82902052405700
H         1.71606635155067    4.62495210249024    3.35312869932150
C         2.28678548829242    2.28264515650872    4.74471427350271
H         2.80630917002473    1.34398659441974    4.90490849600946
H         2.91069552972954    3.10396279823281    5.08319843673453
H         1.37382698989738    2.26917336133394    5.33570660225539
B         2.27820000000006   -1.33090000000000    0.17410000000059
O         3.23888001640292   -2.11183351106281    0.77014997188456
C         4.46145701832076   -2.04885885383638    0.02188268101685
C         5.36587738139146   -1.04762886484124    0.74586515762208
H         4.85266195162201   -0.09296349675287    0.81513289603361
H         5.53360092474489   -1.40616859409894    1.75822601915414
H         6.31952782897009   -0.93632829388522    0.23992427237001
C         5.12655351130157   -3.42351008742388    0.01573043619430
H         5.41301688528979   -3.67374241809632    1.03345146221352
H         6.01576151467122   -3.40307951342776   -0.60786547692744
H         4.44870182163547   -4.19100630874926   -0.34303542330818
C         3.97938187520455   -1.53219411695136   -1.37826588979467
O         2.70353255717852   -0.94356774184586   -1.07745854479568
C         4.87889428823841   -0.47583816281564   -2.01693926495299
H         5.88578768801258   -0.86365100854018   -2.14241372740157
H         4.47961317155219   -0.21160442743766   -2.99318423484730
H         4.90278054911889    0.41961934199862   -1.40553889463576
C         3.73397728174488   -2.66143401894107   -2.38801907863394
H         3.07982496684735   -3.41524642636295   -1.95839390280474
H         3.23954230717938   -2.24450372190004   -3.26209134332981
H         4.66981451955882   -3.11914505285343   -2.69371985916858
H        -3.21309408556748   -3.25901167319281   -3.25214032102154
H        -5.15934479857418    1.51966821255308    1.34827616736118
C         0.23589999999729   -1.68139999999654    2.96029999999915
C        -1.07227715622596   -2.04674127814761    3.26263473031136
C         1.11566744567229   -1.61885061862951    4.03731275632702
C        -1.52384862528436   -2.21981201688226    4.57101528080865
H        -1.79488750664852   -2.21874642408992    2.47865704344679
C         0.69387501895915   -1.78335683270652    5.34382265718826
Br        2.98139261392418   -1.37689633264296    3.77729071504441
O        -2.84229237658288   -2.55154470156289    4.69515461697865
C        -0.63227757489250   -2.06544241741957    5.62588035905486
H         1.40880942914579   -1.70787083856337    6.14873983508982
C        -3.37015153723192   -2.79908243358106    5.98919976015274
H        -0.93790838097244   -2.18705323523697    6.65206271825002
C        -4.82903500256862   -3.19852793624637    5.82636322705468
H        -3.28880629981454   -1.89269835824355    6.60475990085861
H        -2.80617362383389   -3.60722226658560    6.47424427214586
H        -5.38057752167317   -2.39794939257143    5.34084820840535
H        -5.26444813587748   -3.39610940318544    6.80133091741484
H        -4.90144642836630   -4.09223674660434    5.21239792663638
