  102
 energy: -150.419182029695 gnorm: 0.000493239682 xtb: 6.4.0 (f63f532)
N        -0.93424109815781   -1.95982459159850   -0.38627663545614
C        -2.12087307026332   -1.37699885308858   -0.63477283191931
C        -2.99197692460412   -1.90205757242223   -1.59760398196687
C        -2.63823616216783   -3.03227165628563   -2.30114567179096
C        -1.41022686884276   -3.62868265072424   -2.02715233811613
C        -0.60367301559167   -3.05207877998555   -1.06807305736082
H         0.35783075475644   -3.48169182017197   -0.82335286317882
H        -1.09382632259183   -4.51805819002115   -2.54784085873765
H        -3.94164850134384   -1.43266818645108   -1.79504678081629
C        -2.43494045239818   -0.19039475271035    0.15104774208408
N        -1.51675159025615    0.18743764156084    1.06592527177189
C        -1.77936918003165    1.24329983850446    1.83300018951128
C        -2.93336588143443    1.99350767387051    1.73173682499412
C        -3.87459020604044    1.63795121807284    0.76974178445480
C        -3.61820015291776    0.53805038032035   -0.02100540983165
H        -4.33601545677201    0.24816063605588   -0.77071205256584
H        -3.09425376963091    2.83532256396172    2.38578140361141
H        -1.01366549278587    1.49689726396920    2.54967124945013
Ir        0.42150000000040   -0.81649999999994    0.91329999999959
B         0.52562901749157    0.55890256644878   -0.65654709264306
O        -0.04389622660365    0.23688895481544   -1.87319099840696
C        -0.01555780536334    1.36901086629584   -2.74929221634587
C         0.36052574238152    0.90980404194063   -4.15620320110036
H         1.27207745457751    0.32197678963100   -4.13495061354015
H         0.49135578952074    1.76786859999215   -4.81028346652000
H        -0.43706709949537    0.28489042564314   -4.55074596893552
C        -1.43390563533363    1.95587402109506   -2.77259318870334
H        -1.49796655384358    2.79845704061199   -3.45450354212511
H        -2.12428545662910    1.18091739657962   -3.09947026269877
H        -1.72655988803984    2.26874662669265   -1.77249276282964
C         1.02494209766834    2.31255718727303   -2.05789719927757
O         1.02805775897432    1.83743522727340   -0.70295158742568
C         2.44603296734539    2.11643605944842   -2.59920407768027
H         2.72976211212325    1.07454100320053   -2.47592777020406
H         2.51914837871090    2.41532212493643   -3.64075307184943
H         3.13232555887568    2.71984435168398   -2.00974613489632
C         0.67013795332630    3.79802561407653   -2.08834605282696
H        -0.25642349499787    3.99547057895257   -1.55865795995119
H         1.46339624510350    4.36204640941017   -1.60371072849359
H         0.57936504620194    4.13651416288610   -3.11723479734871
B         1.62603212674525    0.60626049828405    1.86618202643090
O         2.99941895343117    0.60954438973281    1.94399111647027
C         3.46561787590248    1.87847803611175    2.42441859181424
C         4.64891375195038    1.67387071522365    3.36911798700813
H         4.40518414021777    0.97315425016762    4.16095029922775
H         5.48832427494892    1.26979651599726    2.80868885356213
H         4.94597893090506    2.62345240149245    3.80578483757657
C         3.92263832810340    2.66551394997213    1.19050776311150
H         4.27861654309371    3.65630782696683    1.45630054463023
H         4.72931083266060    2.11731783535170    0.70915701524714
H         3.09598140272383    2.72900375699836    0.48760520502784
C         2.18402529997091    2.48558719311691    3.09133569577194
O         1.12396046124211    1.71788071046391    2.50218328169891
C         1.95019404596603    3.96650897591731    2.79870908797577
H         1.79266049865303    4.12391436028934    1.73696121042471
H         1.06029856777350    4.29777409207163    3.32805869537550
H         2.79860867967652    4.55473809145203    3.13732964280321
C         2.12586890755801    2.25477918870261    4.60615740787575
H         2.25322586289110    1.19984143961867    4.83048787675327
H         2.88966899136762    2.83002271569548    5.11997395026873
H         1.14830854342757    2.56063237154001    4.97209874849226
B         2.27820000000308   -1.33090000000000    0.17410000000124
O         3.02314890188068   -2.37028649699304    0.69900838890010
C         4.31859398867001   -2.42001126030059    0.08901770262356
C         5.29488463302896   -1.77796954801599    1.08044124177403
H         4.94401778213136   -0.77916168287698    1.32350208622723
H         5.29220843861886   -2.36468059057750    1.99587769780106
H         6.30502506065851   -1.74585683578255    0.68425747166437
C         4.71670723076605   -3.87746956187398   -0.14284883032887
H         4.80956659966727   -4.37139308214383    0.82088011500337
H         5.67217901793308   -3.92677091497562   -0.65738590552323
H         3.96567161433362   -4.40622184186899   -0.72020496336817
C         4.11490123585472   -1.56977906512326   -1.21250451124707
O         2.93078313322613   -0.80959335530072   -0.91802785986297
C         5.26453463765034   -0.61934188578102   -1.53969473602429
H         6.19014456358805   -1.17702678809504   -1.65268962305382
H         5.05045408051504   -0.10276871623143   -2.47188546662616
H         5.37704635824280    0.12377810557335   -0.75802107326651
C         3.80192448095000   -2.42486984292443   -2.44812546780509
H         2.95868297677218   -3.07972002655150   -2.24582801579212
H         3.52380906147215   -1.76499172688822   -3.26661400603195
H         4.66479270571994   -3.01277349458963   -2.74588637763902
H        -3.30082991506526   -3.44608175041282   -3.04611390754740
H        -4.78399227984185    2.20621314078654    0.64510380791183
C         0.23590000000038   -1.68140000000050    2.96029999999798
C        -1.04604738019492   -2.01931433326140    3.43048494599279
C         1.25901884270477   -1.55748227475681    3.89311911904956
C        -1.29092236137129   -2.11583999824162    4.79764687297779
O        -2.00699041939984   -2.23736072832184    2.48418578128509
C         0.99743803963434   -1.66667741866220    5.24643225390405
H         2.26389378388416   -1.37188622907723    3.54683919798960
C        -0.27176258165755   -1.92897305829164    5.71804981110784
H        -2.27725685789382   -2.33677766835461    5.17369593937292
C        -3.29835063941549   -2.63398856243855    2.90798876432776
Br        2.43062266932327   -1.45284939154849    6.49513958322429
H        -0.47077707062888   -2.00150392681084    6.77588795026639
C        -4.16024104808666   -2.89433466609697    1.68265142621004
H        -3.75187159524978   -1.84269706982982    3.52218941173257
H        -3.22518767687410   -3.54973443216338    3.51166027201498
H        -3.67632353621647   -3.62264294202500    1.03766499523555
H        -4.30367860865357   -1.97466329397163    1.12345460978584
H        -5.12709004583341   -3.27765805352602    1.99553189976331
