  104
 energy: -149.518027357839 gnorm: 0.000765645994 xtb: 6.4.0 (f63f532)
N        -0.90425063231746   -1.96706930576840   -0.44281632214677
C        -2.14680052994123   -1.47048810376202   -0.59419234604290
C        -2.98020155523038   -1.91754833673802   -1.62668446070034
C        -2.53247688987434   -2.88516442454777   -2.49925338887388
C        -1.24945012710314   -3.39739354385777   -2.32426283224298
C        -0.48371243856954   -2.90319098290542   -1.28929055204709
H         0.51891322833982   -3.26805935576468   -1.11671680375985
H        -0.85902624878640   -4.15819481030741   -2.98039636447581
H        -3.96594103709495   -1.50169818115106   -1.75530229269329
C        -2.55049146159234   -0.44097299858705    0.35618388469450
N        -1.59807128354979    0.00540778463125    1.20172789259377
C        -1.91816958181370    0.94979448855862    2.08317325683402
C        -3.17930036794817    1.50007995790960    2.18689703743850
C        -4.17484594210402    1.04626437959547    1.32559356670978
C        -3.85260774768930    0.07217186596258    0.40542386037113
H        -4.61157005101361   -0.29793730788240   -0.26374592434639
H        -3.38302425569737    2.25821036620655    2.92564095867139
H        -1.11152995656619    1.27529558905407    2.72176983262587
Ir        0.42149999999986   -0.81650000000027    0.91329999999999
B         0.40938020416916    0.66118531702996   -0.56765963657026
O        -0.36900232584219    0.50003697186191   -1.70214022920209
C        -0.45451146257244    1.73872739795143   -2.41576475453056
C        -0.40331489824924    1.47475337063660   -3.91846569456958
H         0.46052188095847    0.87130094394863   -4.17671154538045
H        -0.36706309962937    2.41587146366169   -4.46133257529392
H        -1.29785425084441    0.93191681656847   -4.21500539203109
C        -1.81024624693572    2.36608885214955   -2.05938647322110
H        -1.96771908506700    3.29556497900090   -2.59841533967230
H        -2.59890286305425    1.66434838902187   -2.32435001320236
H        -1.86700867480681    2.54757766030382   -0.98784095863779
C         0.75429390893225    2.54657772046917   -1.84053012225615
O         0.96979850336123    1.91652786715736   -0.57025613949627
C         2.03705184300463    2.34609266570155   -2.65633360130675
H         2.25186776426600    1.28248344447602   -2.72859442276407
H         1.95121874992397    2.78698617365304   -3.64530937692822
H         2.86339774214729    2.81609491339260   -2.12805452782306
C         0.50030486579396    4.03987573824517   -1.64348002666673
H        -0.28180942634563    4.21181563483717   -0.91032273214170
H         1.41167394043020    4.51164306270880   -1.28346879409182
H         0.21970653675361    4.49851021632707   -2.58813446122471
B         1.56536854458414    0.64431560072414    1.87429483814177
O         2.93225204548220    0.75233399399003    1.91976776959261
C         3.31648577251183    2.02238202859615    2.46628322507503
C         4.50617932737136    1.83723662315348    3.40791298252722
H         4.29261092609610    1.10075663950138    4.17531871167718
H         5.36114139851062    1.48668104149064    2.83538911841339
H         4.76287622801663    2.78323089951762    3.87662297311704
C         3.73760859458711    2.89553497857518    1.27811420624685
H         4.01001225906085    3.89779666722240    1.59456109710482
H         4.59597436893468    2.43339584253684    0.79551160296879
H         2.92431424966618    2.92761286001280    0.55794973421689
C         1.99779068259285    2.51898591407469    3.15697656074242
O         0.99032449958644    1.68625274404609    2.56471382900773
C         1.64719984344816    3.98209451777330    2.88995783132851
H         1.47362018508294    4.14183296353051    1.83085511016700
H         0.73541230188946    4.23295722386812    3.42680883849338
H         2.44675831559499    4.63135506078762    3.23563855760328
C         1.96856564152042    2.26169350964103    4.66835945678119
H         2.16356847706666    1.21381410712289    4.87616251327087
H         2.69878687228594    2.87636481668522    5.18528961014622
H         0.97683368225262    2.49991711296325    5.04649906362234
B         2.27820000000122   -1.33089999999987    0.17409999999700
O         3.16242184775780   -2.21856881548860    0.74785150699669
C         4.42032132947876   -2.18805311229696    0.06076295944640
C         5.37665323266532   -1.36931214665924    0.93426507783782
H         4.93069747719136   -0.39861725777607    1.12967233117836
H         5.49553118852461   -1.87938633080220    1.88703273302155
H         6.35055812654309   -1.25994401359779    0.46740181398759
C         4.95817322930838   -3.61255324427054   -0.07799654737872
H         5.15720800223252   -4.00865425840155    0.91426534361486
H         5.88305462138101   -3.60887413995587   -0.64788914125066
H         4.23701428169079   -4.26384154895416   -0.56048236678914
C         4.06173076777923   -1.47924368561192   -1.29418055083387
O         2.79585543646341   -0.86355371073261   -1.01181743964461
C         5.05066048253490   -0.40052397228880   -1.73383837354616
H         6.04409934169208   -0.82303030239107   -1.85570193869173
H         4.72560075552222    0.01281558124258   -2.68531889658657
H         5.07834435086672    0.40450166703626   -1.00766071926126
C         3.84204044408047   -2.45913934934167   -2.45477145325669
H         3.11098355535937   -3.21390354904255   -2.17875610651381
H         3.44983534983558   -1.90754638883537   -3.30580826378330
H         4.77327917019518   -2.93748249541835   -2.74229150093271
H        -3.16325504366060   -3.23572086691991   -3.30184824953379
H        -5.17662793949419    1.44499501802510    1.37702774244298
C         0.23589999999790   -1.68140000000083    2.96030000000352
C        -1.01889500531398   -2.10891008032238    3.38718611740688
C         1.22185004151725   -1.52901900765858    3.93115928943317
C        -1.29346103116991   -2.28980674661834    4.73085153336543
H        -1.80135953256999   -2.31425607967750    2.67017486978461
C         0.92603069392344   -1.71434751673438    5.26836298477319
H         2.22592872254711   -1.27313536055364    3.62909680642697
C        -0.33490259187948   -2.08890125176833    5.72009002279820
H        -2.28159430264105   -2.61325704228361    5.02352396474893
Br        2.37842288108841   -1.45827999723093    6.50103462265947
C        -0.66350526322250   -2.33198545945378    7.17244922971869
C        -1.92660173551985   -1.58374532502086    7.60429484273028
C        -0.80667801278140   -3.83584843214231    7.42982977957952
H         0.16444578243726   -1.96376312034161    7.78624157267741
H        -2.81014814223021   -1.98824230245354    7.11705992200585
H        -1.84679945083947   -0.52760517145579    7.35613804488496
H        -2.05868938302494   -1.67720216146521    8.67977958501663
H        -1.62510742467337   -4.24886791337289    6.84416331574821
H        -1.00542015784709   -4.01750689164964    8.48346181430914
H         0.10868290496288   -4.35723470482814    7.15654735198008
