   98
 energy: -143.656216437943 gnorm: 0.000351465078 xtb: 6.4.0 (f63f532)
N        -0.95098835977119   -2.01056948669343   -0.35326120577963
C        -2.18767858131497   -1.50673315232734   -0.52680250882077
C        -3.08236838541792   -2.09313984065674   -1.43180138521945
C        -2.69330961531048   -3.19038083646320   -2.16780419859705
C        -1.40667814223738   -3.69257213670632   -1.98618070587583
C        -0.58549305361303   -3.06935747853936   -1.07025962628574
H         0.41742143986002   -3.42983566762916   -0.88901359158772
H        -1.05856480754844   -4.54854700741982   -2.54096930182227
H        -4.07541641862724   -1.69441818635565   -1.55798176072204
C        -2.52123222300220   -0.33044086904258    0.26541444886022
N        -1.57236610535235    0.10839842262008    1.12087024715062
C        -1.83605412880435    1.17552343807697    1.87315131854608
C        -3.02497686064906    1.87240802128971    1.81659422288339
C        -4.00438510995138    1.44680934893573    0.92228869392997
C        -3.74555474871330    0.33896790132404    0.14481826098491
H        -4.48995728953500   -0.00279400913866   -0.55499665000350
H        -3.18677900277893    2.72530488677175    2.45554766017004
H        -1.04409789364343    1.47206748532827    2.54361387203220
Ir        0.42149999999987   -0.81650000000003    0.91330000000017
B         0.38086764649118    0.60790962351077   -0.60852755264086
O        -0.15475150079456    0.27934765386496   -1.83849959953827
C        -0.26261624784970    1.44991822493114   -2.65712157484161
C         0.13979829385140    1.11079120456581   -4.09005917435941
H         1.10605635904494    0.61787171743602   -4.10878467298425
H         0.17719143726140    2.01451578964299   -4.69292642231063
H        -0.59583181090162    0.43319433613658   -4.51672851073631
C        -1.73525149512183    1.88394943717437   -2.63446158863219
H        -1.89987147942285    2.74227542895732   -3.27918226613169
H        -2.34807730642265    1.05512073741453   -2.98359842877486
H        -2.04052305689954    2.12483718767114   -1.61800431399989
C         0.67924058444869    2.46259782434781   -1.92728623273099
O         0.71584802363963    1.94400725542302   -0.59018283043597
C         2.11613409497036    2.40943758295204   -2.46014449250292
H         2.48306156317202    1.38818090702614   -2.38917650134432
H         2.17363406618647    2.76835148053886   -3.48368110808322
H         2.74607218774939    3.03277498117446   -1.83024599346068
C         0.19063723224309    3.90945224157724   -1.91478403796988
H        -0.75178705986286    4.00446635370937   -1.38420124510057
H         0.92759658889966    4.52961381335446   -1.41003961235179
H         0.07075049613125    4.26889452361210   -2.93362098996845
B         1.59708369420334    0.65928696885646    1.83191767897254
O         2.90021172123792    1.01697292816387    1.59557323296900
C         3.23537204653702    2.22251572556566    2.29755353853772
C         4.59106414908794    2.04612462900819    2.98403478391776
H         4.59909922641955    1.15746198374651    3.60698389507989
H         5.36098163077412    1.93254138224673    2.22471773933105
H         4.82306158978661    2.91854681607474    3.58813299865393
C         3.34591256149379    3.32706464783558    1.24021979971197
H         3.56009137487895    4.29091034838470    1.69201938890529
H         4.15160449855710    3.06963957758930    0.55616609762201
H         2.42244945443700    3.36938191324978    0.66950504220749
C         2.02423655545964    2.41782124110033    3.28135810755936
O         1.05388291630100    1.48199951699096    2.79315480043631
C         1.40293034917378    3.81583181823985    3.26123325720465
H         1.02291897427247    4.05484053782535    2.27335253008551
H         0.57147994173494    3.83953398094949    3.96159982510057
H         2.13486220850610    4.55951832295078    3.56346348433622
C         2.33555019126683    2.04071560847080    4.73506981002196
H         2.72404183071455    1.02881276629897    4.79296909199153
H         3.04837661211140    2.73392106080634    5.17080549741175
H         1.41122700128709    2.07677779478018    5.30697569093703
B         2.27819999999977   -1.33089999999946    0.17410000000021
O         3.14789785075387   -2.25886933706138    0.70814371032061
C         4.40754234670375   -2.20747374683355    0.02622516790751
C         5.34936528429194   -1.37927260226234    0.90703003604723
H         4.90956283685960   -0.39932107528152    1.07240365444150
H         5.44108741892672   -1.87105200005774    1.87292581431119
H         6.33456309382412   -1.28656037660046    0.46066663252848
C         4.96521936972130   -3.62173080484500   -0.12600456748333
H         5.18188921556916   -4.02022315508737    0.86164303449209
H         5.88309068913378   -3.59933836936078   -0.70684169939231
H         4.24834446418330   -4.28033259719427   -0.60503317534995
C         4.03980970745962   -1.48680410990203   -1.31636230281532
O         2.80467937410710   -0.82870852221077   -0.99547097591918
C         5.05854708356200   -0.45028120442000   -1.78631086680520
H         6.03534146879837   -0.91025918482597   -1.90796852814992
H         4.74030933106557   -0.04412185052103   -2.74335588567371
H         5.12220819258715    0.36622018016393   -1.07513729187461
C         3.74798506048368   -2.46439299459753   -2.46299262671951
H         3.00744690252932   -3.19630310527982   -2.15199351842946
H         3.33560644374053   -1.90592132357412   -3.29997641893612
H         4.65362259230232   -2.96952372807039   -2.78480334125333
H        -3.37198227246432   -3.64937563959961   -2.87059229778900
H        -4.94479205288507    1.97027918680963    0.83849088630834
C         0.23590000000073   -1.68140000000049    2.96030000000068
C        -1.07592713828930   -2.00611157523724    3.30967182413132
C         1.15690222594574   -1.61981087052679    4.00050736190602
C        -1.48562957074974   -2.14976766094159    4.62788284859939
H        -1.81079352556017   -2.15651588106617    2.53060464154473
C         0.77986491104667   -1.75623789646723    5.32756869499617
Cl        2.83585317158340   -1.39682600379303    3.64563031870502
C        -2.91254736039505   -2.46899319468658    4.96593658937607
C        -0.54301332416876   -2.00397519038132    5.64003710564819
H         1.52661644999830   -1.68162518773841    6.10173976774923
H        -3.50232901881479   -2.61868497402702    4.06513774161944
H        -3.35482426809440   -1.65565395237850    5.53987087310285
H        -2.96476955541484   -3.37184689680291    5.57234386367893
H        -0.84059725351945   -2.10884271734070    6.67268414440318
