   98
 energy: -143.654621584546 gnorm: 0.000296933398 xtb: 6.4.0 (f63f532)
N        -0.93196766308377   -2.04557159410951   -0.33604718513045
C        -2.19002828930957   -1.59284855557303   -0.49321527872913
C        -3.09414969889157   -2.25843105093444   -1.33219358651887
C        -2.69058684210357   -3.37684566172497   -2.02724422267252
C        -1.37951396194148   -3.82094414144864   -1.87040958366437
C        -0.55212413907146   -3.12479463676033   -1.01470063768036
H         0.46891729441495   -3.43968779151655   -0.85215818832491
H        -1.01898411868855   -4.68974864689578   -2.39664050897853
H        -4.10736331391376   -1.90639196639482   -1.43543030687079
C        -2.54218353296927   -0.38518315519359    0.24256632500975
N        -1.60550921018014    0.10465822788042    1.08173316507088
C        -1.88499994009711    1.20347814662768    1.77829090358031
C        -3.08178823603593    1.88314860254335    1.68226641705756
C        -4.05044350651894    1.40265405796024    0.80468120241106
C        -3.77298625698033    0.26339496075576    0.08094555469786
H        -4.50711441227151   -0.11655124475669   -0.61017892016868
H        -3.25853055174263    2.76336854705099    2.27918731505171
H        -1.09856231180138    1.54238761936186    2.43473665018611
Ir        0.42150000000000   -0.81650000000028    0.91329999999938
B         0.37288267501339    0.60671325098497   -0.61312296448538
O        -0.23872824796786    0.29693786793763   -1.81368022398539
C        -0.34231599865312    1.46965837789373   -2.62885073603989
C        -0.04472444529753    1.11185724720577   -4.08277022467626
H         0.89232330122637    0.57066036848363   -4.15933986849596
H         0.00156613890389    2.01329963254554   -4.68843081231688
H        -0.83846631460557    0.47340254794669   -4.46332848015492
C        -1.78878078756862    1.97261407540151   -2.51815619043707
H        -1.95312213602993    2.83525681893419   -3.15708861847502
H        -2.46073865937596    1.17245914964146   -2.82259296923123
H        -2.01875131859589    2.23150151921975   -1.48648827743935
C         0.68664324132271    2.43939840107418   -1.96105004912490
O         0.77715220949854    1.92253425148462   -0.62620805685250
C         2.08656362792567    2.31900725905111   -2.57536616212624
H         2.40951073722636    1.28227025677568   -2.51984088886300
H         2.10177519523452    2.67248277121995   -3.60231131759798
H         2.77850292304377    2.91459881634611   -1.98492644192423
C         0.26636781448256    3.90735571216962   -1.92775650991778
H        -0.63275656787030    4.04775952053483   -1.33567945646321
H         1.06292433343603    4.49587967766336   -1.47877125119293
H         0.09371738699440    4.26715065381564   -2.93890136141009
B         1.55215536866587    0.67752555424518    1.83680596603872
O         2.90714376197195    0.90677995300682    1.74686312430782
C         3.24245895940557    2.16487426750050    2.35000053862344
C         4.54955224101532    2.02910123500211    3.13032944641974
H         4.49794505025624    1.21383451940562    3.84385086005277
H         5.35745637452081    1.81954277115071    2.43407390688158
H         4.77034941785332    2.95625163885811    3.65219940770094
C         3.43538766266455    3.16089689036485    1.20095105623129
H         3.67336409734880    4.15473144941631    1.56801343418485
H         4.25137815532522    2.80926909067125    0.57361532645878
H         2.53305759894797    3.18096407027152    0.59574651704366
C         1.98030164041622    2.47589797938235    3.22637121773321
O         0.97914012445470    1.62162286805349    2.65692714721657
C         1.49816687703642    3.92451765486794    3.16474445224200
H         1.19762606476049    4.18656025965157    2.15565382300050
H         0.63655555146738    4.03943281682950    3.81793859709126
H         2.28296688241242    4.59690688725339    3.50036103205141
C         2.14326790195581    2.06185277829641    4.69448904145954
H         2.42984695391669    1.01659858272839    4.75872340982263
H         2.87948980555175    2.68262067942495    5.19571437813517
H         1.18491813479492    2.17527439560426    5.19578892756617
B         2.27819999999835   -1.33090000000145    0.17410000000313
O         3.12413436177375   -2.29525446250411    0.67917715924632
C         4.39409549999438   -2.23556414358624    0.01626280470355
C         5.33631376370738   -1.46494492086332    0.94713605968071
H         4.90269448221412   -0.49182140499874    1.15919820860306
H         5.41689625460133   -2.00949127957175    1.88418816035123
H         6.32511453911936   -1.35823474742815    0.51242982961707
C         4.92900871211619   -3.65121140932678   -0.19454849065818
H         5.12923241910334   -4.09972157707981    0.77476152968117
H         5.85294217050267   -3.61979875024278   -0.76500318311855
H         4.20597935878496   -4.27372121957124   -0.71077954707988
C         4.05895112943407   -1.44839997618118   -1.29769251113709
O         2.82530125757390   -0.79144518576525   -0.96704115704672
C         5.09608227720350   -0.40135284272829   -1.69892397928612
H         6.06931849417645   -0.86560356315555   -1.83183366241556
H         4.79568552299563    0.05818073035152   -2.63713194072288
H         5.15772536403973    0.37610825633388   -0.94555419295904
C         3.77751242823603   -2.36558312639428   -2.49549625848886
H         3.01917157415370   -3.09926121462181   -2.23632675476191
H         3.39190464291606   -1.76102664968329   -3.31279295008782
H         4.68175212516868   -2.86905826697276   -2.82374860973926
H        -3.37704031672292   -3.89650806068081   -2.67833441234297
H        -4.99704213564166    1.90953274941108    0.69150868506835
C         0.23589999999573   -1.68140000000450    2.96029999999633
C        -1.11090869930609   -1.88707477560478    3.25269757071334
C         1.15662262635690   -1.71761363562676    4.01769367211849
C        -1.54625224091435   -1.96224166300351    4.56397732471371
H        -1.84431780071280   -1.99964486096878    2.46897185120057
C         2.63230282151049   -1.75539701002888    3.76994030511411
C         0.68940139255172   -1.78824804810847    5.32460284732747
C        -0.66062114056187   -1.88584115063287    5.61990802986881
Cl       -3.24987875618151   -2.17965437394769    4.87987641096307
H         2.93967751897192   -0.92450792181624    3.14417389123089
H         2.88077285199520   -2.65942332992267    3.21827819135759
H         3.18431751829419   -1.74665025900848    4.70672677860993
H         1.39694071318731   -1.78473765532832    6.14148425185891
H        -1.00843975654945   -1.93415214332046    6.63975706068895
