   98
 energy: -143.652337311843 gnorm: 0.000262905561 xtb: 6.4.0 (f63f532)
N        -0.93251011085850   -1.92149662001994   -0.50994220021573
C        -2.11643370706072   -1.31366652508460   -0.71942988858701
C        -2.89779956085259   -1.62449716211582   -1.83740336205035
C        -2.46229194342471   -2.57537585625265   -2.73498859041443
C        -1.24522362805594   -3.20760673005939   -2.49792794711520
C        -0.52419987721473   -2.83937930181036   -1.38096913257657
H         0.42786541557771   -3.30014774531670   -1.15791597772674
H        -0.86989188840173   -3.96271566682565   -3.16940815520047
H        -3.83055416599564   -1.11453142502362   -2.01425172008097
C        -2.51336102169058   -0.31646014290739    0.26888325608291
N        -1.58604833573293    0.02620975337596    1.18795416229151
C        -1.91223272658994    0.91540320677898    2.12211424240090
C        -3.14892686865248    1.52406577277873    2.19703598735998
C        -4.11239628785968    1.18990105580708    1.24961246210998
C        -3.78835967035767    0.26061414701741    0.28378793187315
H        -4.52754894001084   -0.02696838996622   -0.44544905624630
H        -3.35866804723331    2.23549476715767    2.97924625297917
H        -1.13440507858120    1.14691529334976    2.83282675061764
Ir        0.42149999999997   -0.81649999999983    0.91329999999969
B         0.47716084180512    0.63383914673372   -0.60282421516741
O        -0.26048412247995    0.44242759154566   -1.75819449406612
C        -0.25488368882495    1.63318402414194   -2.55123325539630
C        -0.14275691468306    1.26469116439390   -4.02840284233503
H         0.70471803279218    0.60953156217711   -4.19950880472482
H        -0.03779582576436    2.16290818791662   -4.63139434578316
H        -1.04514771901782    0.73919342796401   -4.33193603767472
C        -1.59659604233306    2.33897660703317   -2.30688162648743
H        -1.68485483382682    3.23669789483676   -2.91146162810970
H        -2.40091581268863    1.65426644410585   -2.56811441531018
H        -1.69810498742943    2.59208839156912   -1.25353365213226
C         0.96164757310760    2.42393629774645   -1.96836112516123
O         1.09388619167613    1.86292005310828   -0.65501173625823
C         2.26800645034243    2.12177364520724   -2.71228311025171
H         2.44033348111057    1.04833526372706   -2.70586604442008
H         2.24153403630784    2.50026439079773   -3.72998129681829
H         3.09145484491403    2.59326220130842   -2.18060056051041
C         0.76392078042310    3.93588080584883   -1.87471569260407
H        -0.04411839928802    4.18566004604451   -1.19390073347256
H         1.67701714196493    4.39296367809883   -1.50030432469259
H         0.54830133802135    4.34439117829928   -2.85877955757573
B         1.55102261083440    0.69383496758493    1.80398569217327
O         2.91482846539503    0.81036643452624    1.86583301682280
C         3.29101867354110    2.09651778021968    2.37558349638922
C         4.41104828983344    1.92329302970080    3.40247398063065
H         4.11758536190391    1.24031598569610    4.19284083043884
H         5.28357952391300    1.50612325092394    2.90599383213945
H         4.67864875069218    2.88399928622328    3.83371009962116
C         3.81990163524846    2.90051496426484    1.18175310437504
H         4.08389535898814    3.91426528977922    1.46712702993823
H         4.70607908804577    2.40318416696207    0.79330733249251
H         3.06624767104258    2.90662246733593    0.39945050493843
C         1.94220261886107    2.65775529054474    2.95736227846450
O         0.95618197571554    1.77063491232890    2.41391919825792
C         1.60489296038499    4.08409080648160    2.52189164562371
H         1.49945482667716    4.13414100601842    1.44337709128977
H         0.65813462837148    4.37535013789132    2.97010716732431
H         2.37567545083615    4.77496959922042    2.85176327928856
C         1.84495063057845    2.56545061546467    4.48508768636585
H         1.99801102419316    1.54197108350100    4.81451239600913
H         2.57071147887682    3.21599249625869    4.96328929709224
H         0.84620121565344    2.86833819197557    4.79138326119342
B         2.27820000000303   -1.33089999999902    0.17410000000325
O         3.17745266238555   -2.15070918145925    0.82199532524455
C         4.42493868152273   -2.18465706612399    0.12036542046489
C         5.38748218606996   -1.27108206334857    0.88669470863193
H         4.94002712550950   -0.28586980008297    0.97846252790162
H         5.51664788494601   -1.67199923912663    1.88900970977549
H         6.35644542544805   -1.21155793399953    0.40057817456762
C         4.97230480740315   -3.61242829648490    0.12813872006906
H         5.18495911786558   -3.89794219511549    1.15497924225208
H         5.89054893731338   -3.66494854589755   -0.45011332011003
H         4.24982221292044   -4.31605204813395   -0.27161474890282
C         4.04116048796110   -1.62718407881711   -1.29609309115823
O         2.78354046958230   -0.97537874746146   -1.05712537062347
C         5.02996015046606   -0.61672716634892   -1.87516387064904
H         6.01754558785657   -1.06172276618030   -1.95974023260838
H         4.69544417039985   -0.31659229115696   -2.86511173878339
H         5.07722977821717    0.26871249708740   -1.25054285044129
C         3.78932040817433   -2.73080707258809   -2.33245938940601
H         3.06042875726652   -3.44191568384781   -1.95392394404263
H         3.38105076076954   -2.27663958981367   -3.23204021911139
H         4.71074142732315   -3.24719692557968   -2.58362276854593
H        -3.05238521751419   -2.82050326850336   -3.60500352657118
H        -5.09315720981458    1.64034712487406    1.27333522348734
C         0.23590000000027   -1.68139999999510    2.96030000000009
C        -0.97120590731997   -2.20132471534845    3.44003905129590
C         1.22006849622707   -1.33410875963240    3.88873783677334
C        -1.21694337594995   -2.20934416763001    4.81141806389643
C        -2.02175246501692   -2.79180882361283    2.54412277113283
C         0.95299018431509   -1.36592912954075    5.24310916308834
H         2.19862333963058   -1.04625690747402    3.54027235131393
C        -0.27762393155886   -1.77572388142680    5.72693062956377
H        -2.16715958083799   -2.57858715040812    5.17124948117981
H        -2.38861051107426   -3.72505642081352    2.96900211081350
H        -1.61927117739036   -2.98829276809702    1.55565943670360
H        -2.87139006603802   -2.11619281047889    2.44608236038050
Cl        2.19684104837684   -0.90107374465112    6.37149602499821
H        -0.48173067973984   -1.78532571156596    6.78584032883724
