15
 energy: -35.321987482550 gnorm: 0.000210194381 xtb: 6.4.1 (1a32961)
C         0.98719179723093    1.20862047656997   -0.01163240196877
C         2.37474680070420    1.19658612270307   -0.00715046321629
C         3.14603380992511    2.48509394947915   -0.01357666008218
F         2.37125853461349    3.57908637830353   -0.03568048511829
F         3.94186752906511    2.61061258126392    1.06838253138898
F         3.96687178836129    2.58476323340568   -1.07928170609447
C         3.08365221912268    0.00025543743809    0.00392436657050
C         2.39182794641115   -1.19907123169796    0.00985266959657
C         1.00669670603281   -1.20973746595151    0.00533350511788
C         0.32127408236103   -0.00570460603801   -0.00521202157070
Br       -1.58597299260978   -0.00968531599251   -0.01441723021114
H         0.44235560271343    2.13966575721337   -0.02026548795172
H         4.16203314316752    0.01689541129797    0.00788123120385
H         2.93318050782184   -2.13101977910298    0.01882831712225
H         0.46270252507920   -2.14092094889176    0.00965383521353
