96
 energy: -144.714551982064 gnorm: 0.000250475273 xtb: 6.4.1 (1a32961)
N        -0.96934644816017   -2.00690054829170   -0.34665058264805
C        -2.19446071235620   -1.48304607166241   -0.53411704984266
C        -3.08309527253127   -2.04537063566309   -1.45907046510424
C        -2.69954659594384   -3.14302491448473   -2.19862009559811
C        -1.42554598950936   -3.66802738514820   -2.00029290541103
C        -0.60861458578282   -3.06529753335157   -1.06606906927293
H         0.38524430781332   -3.44321123457009   -0.87207253537250
H        -1.08248563032696   -4.52488156198252   -2.55670482601108
H        -4.06608426538907   -1.62797573419939   -1.60082578795112
C        -2.52353692755129   -0.30650990289846    0.26340469038006
N        -1.57285934010877    0.12791395448938    1.11720798026998
C        -1.82789022723093    1.19788389495996    1.86708672528799
C        -3.01435585151454    1.90062022727426    1.81258866294063
C        -3.99837014565013    1.47576109611873    0.92444595863384
C        -3.74645258784121    0.36516714397500    0.14737436180939
H        -4.49623424921559    0.02414307234067   -0.54673498380337
H        -3.16931843880431    2.75689972594353    2.44856579951285
H        -1.03163742637306    1.49346406903258    2.53284111256440
Ir        0.42150000000009   -0.81650000000032    0.91330000000083
H         0.87260000000020   -2.23030000000004    1.54049999999980
B         0.39579738556230    0.58663753546460   -0.62526278404539
O        -0.12750505255071    0.25237886354654   -1.85794514349833
C        -0.22300835641193    1.41953099868300   -2.68367075088097
C         0.19317948197236    1.07158517930977   -4.11036766601555
H         1.15677274701173    0.57328749811640   -4.11577470974672
H         0.24224595368142    1.97216406429071   -4.71692870149590
H        -0.54144746237678    0.39619083265683   -4.54198905674978
C        -1.69443139084362    1.85768045465465   -2.67712622189112
H        -1.85083843312007    2.71272712070445   -3.32807173391214
H        -2.30590554192732    1.02840958094012   -3.02721182465613
H        -2.00803482790996    2.10495266235539   -1.66480900759070
C         0.71486172560490    2.43286612658951   -1.94908782153163
O         0.73552890758114    1.92040481224231   -0.60874837347931
C         2.15718582327175    2.37188541607077   -2.46586355163379
H         2.51994310494762    1.35007106726588   -2.38382445170802
H         2.22681928538698    2.72412281972572   -3.49087525101396
H         2.78204303960691    2.99749253225106   -1.83329658491535
C         0.23107194857673    3.88125571708267   -1.94908747383795
H        -0.71762839683361    3.98223304795365   -1.43109088538679
H         0.96371842355425    4.50126358875332   -1.43805678011172
H         0.12539760857677    4.23626456587208   -2.97097217132574
B         1.60802837857496    0.65059764337633    1.82773803534344
O         2.91348932135768    0.99612335838985    1.59873132252736
C         3.25412733219619    2.20159659105675    2.29918911840399
C         4.60246593135554    2.01424325390276    2.99699078753477
H         4.59663721868855    1.13024707175386    3.62652638076698
H         5.37605219378373    1.88648593427012    2.24377520676873
H         4.84054150094827    2.88817807451488    3.59639963417185
C         3.38408331009390    3.29955480260990    1.23755210202030
H         3.60215690719851    4.26385123265283    1.68624348576258
H         4.19408303912711    3.03155300744328    0.56287404549930
H         2.46662931325145    3.34669932155750    0.65770359760149
C         2.03620904284255    2.41189435899448    3.27229882840145
O         1.06505361310282    1.47414506893036    2.78719031454009
C         1.41917382597307    3.81120290570408    3.23049965403898
H         1.04453516138621    4.03671015082135    2.23740928847893
H         0.58449654950769    3.84698931206710    3.92653144535703
H         2.15124254899441    4.55733826762033    3.52582790946334
C         2.33480768838307    2.05051231103956    4.73248020106721
H         2.72224595399654    1.03926672305400    4.80613898228387
H         3.04462208439469    2.74806185853838    5.16605834848434
H         1.40608768028940    2.09502869055564    5.29680640469125
B         2.27820000000135   -1.33089999999851    0.17409999999924
O         3.12208808700736   -2.27750491488600    0.71556898374597
C         4.39540693706760   -2.24351459319584    0.05755843806128
C         5.34055815176233   -1.45821639369625    0.97326250732155
H         4.92042610286224   -0.47282002234361    1.15545196894947
H         5.40616596215373   -1.97538383659762    1.92784776469879
H         6.33459508537279   -1.37697190287767    0.54493883715803
C         4.91906299654552   -3.66889630645049   -0.11194843954019
H         5.10066095336096   -4.09360007451405    0.87183226961335
H         5.85106499075648   -3.65989899199843   -0.66995202486300
H         4.19673393182017   -4.29758112150060   -0.62180853922988
C         4.07087121927884   -1.48786659018429   -1.27790409967159
O         2.83401410525475   -0.82221335559627   -0.97603189731657
C         5.11192910497976   -0.45076173248744   -1.69443960503308
H         6.08606514118958   -0.91850394156345   -1.80665730229073
H         4.82054080776747   -0.01390205280581   -2.64636408688849
H         5.16737036011120    0.34411254533983   -0.95869084323155
C         3.79990776468266   -2.43368258468785   -2.45548527628761
H         3.03794239576673   -3.15979693057222   -2.18587178407716
H         3.42395703851999   -1.84910014150164   -3.29161496807735
H         4.70709762462489   -2.94623229819324   -2.76050820033925
H        -3.37409726670016   -3.58365127524898   -2.91683440653991
H        -4.93766875442774    2.00150618064873    0.84386471100077
C         0.23590000000218   -1.68140000000499    2.96030000000432
C        -1.08074736924771   -1.99502744727210    3.30722642809560
C         1.15532805909222   -1.62342983729319    4.00711816283226
C        -1.49071199608027   -2.12608719262007    4.62321184643051
H        -1.81632995331468   -2.14307780465277    2.53111696970919
C         0.78428668161369   -1.75102296136249    5.33732327047159
Cl        2.82955037786165   -1.41220344193088    3.65930834206387
C        -0.54712949632870   -1.98225655361737    5.62159156635621
H        -2.51683184367562   -2.34240066597796    4.87542443244088
H         1.51261576973107   -1.68374597285428    6.12805915513452
F        -0.93090116306097   -2.09847267310545    6.92310917170911
