106
 energy: -152.870161532811 gnorm: 0.002771162356 xtb: 6.4.0 (f63f532)
N        -0.96510000000000   -2.11530000000000   -0.24090000000000
C        -2.24700000000001   -1.69839999999999   -0.36220000000000
C        -3.14040000000000   -2.36819999999999   -1.21200000000001
C        -2.70220000000000   -3.47560000000001   -1.93050000000001
C        -1.37780000000000   -3.89880000000001   -1.78759999999999
C        -0.54290000000000   -3.18670000000000   -0.93510000000001
H         0.49810000000000   -3.45630000000000   -0.78940000000000
H        -0.99570000000000   -4.76030000000000   -2.32770000000000
H        -4.16500000000000   -2.02890000000000   -1.31830000000000
C        -2.62130000000000   -0.50950000000000    0.44099999999999
N        -1.62600000000000    0.07330000000000    1.16020000000000
C        -1.89680000000000    1.15240000000000    1.91690000000000
C        -3.17230000000001    1.70330000000000    1.99650000000000
C        -4.20510000000000    1.11740000000000    1.26270000000000
C        -3.92610000000000    0.00250000000001    0.47819999999999
H        -4.71960000000000   -0.46420000000000   -0.09520000000001
H        -3.34630000000000    2.57510000000000    2.62070000000000
H        -1.04450000000000    1.57420000000000    2.43690000000000
Ir        0.42150000000000   -0.81650000000000    0.91330000000000
H         0.87260000000000   -2.23030000000000    1.54050000000000
B         0.50670000000000    0.41560000000000   -0.81540000000000
O         0.19500000000000   -0.04700000000000   -2.09150000000000
C         0.00650000000000    1.10040000000000   -2.95430000000000
C         0.49020000000000    0.74739999999999   -4.35780000000000
H         1.51610000000001    0.37380000000000   -4.33700000000000
H         0.44730000000001    1.62240000000000   -5.01670000000000
H        -0.14740000000000   -0.03390000000000   -4.78430000000000
C        -1.50120000000000    1.39560000000001   -2.96670000000000
H        -1.75370000000000    2.21460000000001   -3.64850000000000
H        -2.03199999999999    0.49450000000000   -3.28930000000000
H        -1.85170000000000    1.65210000000000   -1.96220000000000
C         0.84230000000001    2.20670000000000   -2.22040000000000
O         0.75200000000000    1.78260000000000   -0.83690000000000
C         2.32930000000000    2.18620000000000   -2.59900000000000
H         2.74130000000000    1.18500000000000   -2.45750000000000
H         2.48870000000000    2.51300000000000   -3.63180000000000
H         2.87200000000000    2.86270000000000   -1.93200000000000
C         0.28440000000000    3.62290000000000   -2.33659999999999
H        -0.72650000000000    3.69040000000000   -1.92910000000000
H         0.92130000000000    4.31480000000000   -1.77610000000000
H         0.26430000000000    3.94810000000000   -3.38320000000001
B         1.56300000000000    0.60960000000000    1.84840000000000
O         2.92780000000000    0.55230000000000    2.15020000000000
C         3.36330000000000    1.88660000000000    2.50260000000001
C         4.53140000000000    1.78589999999999    3.47740000000000
H         4.27909999999999    1.16089999999999    4.33690000000001
H         5.39390000000000    1.33790000000000    2.97340000000001
H         4.82390000000000    2.77869999999999    3.83820000000000
C         3.79700000000000    2.56849999999999    1.19670000000000
H         4.20020000000000    3.57090000000000    1.37680000000000
H         4.56740000000000    1.95560000000000    0.72110000000000
H         2.95240000000000    2.63260000000000    0.50540000000001
C         2.05039999999999    2.50090000000000    3.09320000000000
O         1.03750000000000    1.81620000000000    2.31910000000000
C         1.89100000000001    4.00450000000000    2.88650000000000
H         1.87290000000000    4.25440000000000    1.82410000000000
H         0.94940000000000    4.34260000000000    3.33170000000000
H         2.71080000000000    4.55150000000000    3.36630000000000
C         1.82470000000000    2.13199999999999    4.56520000000000
H         1.92610000000000    1.05330000000000    4.71320000000000
H         2.52610000000001    2.65280000000001    5.22540000000000
H         0.80630000000000    2.41580000000000    4.84900000000000
B         2.27820000000000   -1.33089999999999    0.17410000000000
O         2.89460000000000   -2.57740000000000    0.38450000000000
C         4.26929999999999   -2.48200000000001   -0.07210000000000
C         5.10900000000000   -2.05379999999999    1.14010000000000
H         4.76350000000000   -1.08740000000000    1.51750000000000
H         4.98050000000000   -2.79470000000000    1.93590000000000
H         6.17420000000000   -1.99290000000001    0.89300000000000
C         4.71950000000000   -3.84660000000000   -0.58470000000000
H         4.75279999999999   -4.56130000000000    0.24420000000000
H         5.72330000000000   -3.78370000000001   -1.02010000000000
H         4.03500000000000   -4.23600000000000   -1.34169999999999
C         4.16440000000000   -1.36220000000000   -1.16299999999999
O         3.08520000000001   -0.55030000000000   -0.65400000000000
C         5.40720000000000   -0.48870000000000   -1.31550000000001
H         6.27320000000000   -1.09010000000001   -1.61529999999999
H         5.23300000000000    0.26930000000001   -2.08590000000000
H         5.64270000000000    0.02650000000000   -0.38240000000000
C         3.71800000000000   -1.89830000000000   -2.53110000000000
H         2.82530000000000   -2.52159999999999   -2.42740000000000
H         3.46090000000000   -1.05249999999999   -3.17549999999999
H         4.50570000000001   -2.48289999999999   -3.01789999999999
H        -3.38500000000000   -4.00129999999999   -2.59310000000000
H        -5.21400000000000    1.52080000000000    1.29960000000001
C         0.23589999999998   -1.68140000000001    2.96030000000001
N        -0.76504545973516   -2.43931364767260    3.52609836269774
C         1.35601520372586   -1.90547567205226    3.75440817012541
C        -2.16949996267463   -2.45417681939059    3.19421638442898
C        -0.30820019244418   -3.05842639654923    4.65481492671620
C         1.01474103164762   -2.74548597623216    4.82846257348395
H         2.33389479388630   -1.50553076541907    3.54702647860724
C        -2.63046781639868   -3.53255325556528    2.24558144870247
H        -2.73403229922734   -2.57336735671336    4.12664751170903
H        -2.43972568083623   -1.48345374087667    2.76907391790044
H        -0.96001436584121   -3.66974847644113    5.25563585237873
H         1.66586285216695   -3.10892867109312    5.60548912049556
N        -1.73611703937356   -4.36462193134328    1.71276909294208
C        -3.99273648243801   -3.62637882125501    1.96345161071652
C        -2.17235890154913   -5.30136416521699    0.87374444461943
C        -4.43489810464152   -4.60407121240851    1.08798857975338
H        -4.68619261753120   -2.93929297466190    2.42900293154369
C        -3.50141352344657   -5.46186535313230    0.52357783310759
H        -1.40100295763924   -5.94453530419130    0.46741936011992
H        -5.48719079826781   -4.69509167140897    0.85137957048792
H        -3.80011809665223   -6.23236516889352   -0.17234340545331
