106
 energy: -152.891556200756 gnorm: 0.000500039824 xtb: 6.4.0 (f63f532)
N        -0.98086533132694   -1.97568153980669   -0.33839747619807
C        -2.19546516526258   -1.42770299898432   -0.55477976108838
C        -3.12272054209253   -2.04341208599184   -1.40613700059973
C        -2.78689144978235   -3.20794147412735   -2.05727941205679
C        -1.51877410974696   -3.74797121325828   -1.84520862141094
C        -0.66726057996378   -3.09936150101313   -0.97812533394504
H         0.31734670920193   -3.49313576422867   -0.76784372201473
H        -1.21136112615444   -4.65584427649139   -2.33831064028732
H        -4.10164986224946   -1.61565548971493   -1.54914269764118
C        -2.46573143581792   -0.17934664307263    0.13851877548098
N        -1.52090988148810    0.23331296583899    1.02017390826438
C        -1.72556668331295    1.37312840556170    1.68419766576885
C        -2.84334749961463    2.16158382276537    1.51635859297868
C        -3.81502825108621    1.75954302394911    0.59992951028335
C        -3.61740234329168    0.58428004073096   -0.09091615590583
H        -4.34884574938397    0.26276127451285   -0.81397308541426
H        -2.95843153870472    3.06911100078710    2.08650325610745
H        -0.94048419769581    1.65000471428161    2.37051455125294
Ir        0.42149999999984   -0.81650000000015    0.91330000000039
H         0.87260000000001   -2.23029999999965    1.54050000000064
B         0.49236818027275    0.58042125902888   -0.63955926024724
O        -0.07278654188420    0.26165393163072   -1.85958144236238
C        -0.09628685210624    1.41200545204011   -2.71134943123053
C         0.29565991232183    0.99882969352428   -4.12835080213248
H         1.23309131062306    0.45258458469283   -4.12126700874399
H         0.38523084592920    1.87485140388309   -4.76548232018538
H        -0.47404639859159    0.34612760915204   -4.53361638025717
C        -1.53854587145134    1.93824823754266   -2.72287849002713
H        -1.64147541852649    2.78418930312247   -3.39603623167435
H        -2.19796840202924    1.13819600388063   -3.05411017421385
H        -1.84038550209294    2.22945027932464   -1.71918880090641
C         0.90313870189293    2.38682809335250   -2.00241735782650
O         0.93748880624262    1.88163911136188   -0.66015786437325
C         2.32840137390963    2.27220869786489   -2.55600944556594
H         2.66228385743510    1.24220965383413   -2.46057400336134
H         2.38073996604025    2.59981969567695   -3.59030701881261
H         2.98892903424296    2.89255088749654   -1.95484653558869
C         0.47789358524408    3.85431679864202   -1.99281199671210
H        -0.44983973081544    3.99375537616673   -1.44667329630790
H         1.24922385773441    4.44348848534308   -1.50278269884567
H         0.35727268558581    4.21355348294682   -3.01160096950556
B         1.65406095005061    0.57331412162941    1.88045432421656
O         3.03030539533420    0.58926227755194    1.89934414123897
C         3.50003276339857    1.84543675242484    2.40782366725535
C         4.74022721199221    1.62742776842585    3.27272863513502
H         4.55544425019802    0.88139931806327    4.03835770826086
H         5.55484180351871    1.27367409703042    2.64575568608987
H         5.03900591080449    2.56244328560877    3.73914748239333
C         3.86620345792636    2.69814062140933    1.18668645032307
H         4.23074564354156    3.67911938260233    1.47711064159149
H         4.64158708690071    2.18337010911420    0.62385449650373
H         2.99281135427913    2.78621895194423    0.54563980122876
C         2.24737696260474    2.39283831921639    3.17094634505148
O         1.16913258488430    1.66164596480376    2.56982138578163
C         1.99869002225757    3.89070395520559    3.00315717347681
H         1.78468335867918    4.12864824546172    1.96655791742858
H         1.14005923519318    4.17911730107666    3.60421383197424
H         2.86568271463635    4.45362698106808    3.33814868868567
C         2.25585660139169    2.04316131762857    4.66412408791474
H         2.38212157306982    0.97184614520981    4.79278063421785
H         3.04332864146056    2.57829760260283    5.18606126551598
H         1.29546062962950    2.31848003073259    5.09303604032298
B         2.27820000000029   -1.33090000000047    0.17410000000220
O         3.02664768812592   -2.41008312019632    0.59085459727447
C         4.29160267712133   -2.42991340272723   -0.08329575488347
C         5.31672868900188   -1.83623992422744    0.88826259129991
H         4.98247709039395   -0.84706201556832    1.18836733061954
H         5.35072631434325   -2.46152491603319    1.77671460678304
H         6.30718010025673   -1.79171210397265    0.44572690803571
C         4.67438842250757   -3.87194581930932   -0.41301052982937
H         4.82131949709988   -4.41576066538012    0.51617583916591
H         5.59830924906767   -3.89122486676315   -0.98450642275067
H         3.89039575385621   -4.36957460187397   -0.97389620743981
C         4.02901850446797   -1.51199875095628   -1.32569363611505
O         2.88952340530174   -0.74200614203358   -0.91319040209654
C         5.18105596923569   -0.57705056677902   -1.68747673266159
H         6.08124094719260   -1.15231419727843   -1.88641018584732
H         4.92073381154643   -0.01417615109422   -2.58046561137464
H         5.36559975584533    0.12752444951147   -0.88412122007201
C         3.60775915393711   -2.29890025956339   -2.57515193913168
H         2.76851634548953   -2.94827366561537   -2.34036965248576
H         3.28025567287985   -1.59437461179682   -3.33643730467230
H         4.43344978955347   -2.88492729828156   -2.96724710047976
H        -3.49077439662891   -3.69324251418383   -2.71622566158013
H        -4.69915091006299    2.35565381925125    0.43162444734365
C         0.23590000000169   -1.68139999999406    2.96030000000121
N        -0.93169709656477   -2.11127284793421    3.52881935145315
C         1.16875839884634   -1.60310180413990    3.97670487578842
C        -2.17307898559068   -2.39987489474484    2.87422362600330
C        -0.75706209073623   -2.25310117519955    4.87372859695440
C         0.53625547055338   -1.93741603683581    5.18689911695321
H         2.19829885730979   -1.33603558502387    3.84125394131124
C        -2.16379716702218   -3.68759720290401    2.08388784289834
H        -2.95641272331937   -2.46586055259247    3.63758725584000
H        -2.43866464705591   -1.58205036631949    2.19873847248142
H        -1.56812604751741   -2.55661435459484    5.50831512844274
H         0.97793177485320   -1.95202380835171    6.16568161354059
N        -1.04738927317478   -4.39582369772024    2.06938218714002
C        -3.31379790026962   -4.09437106614688    1.40847832364030
C        -1.02279946526717   -5.53091720465473    1.39168477463670
C        -3.28518638299561   -5.28459233047618    0.70634989423824
H        -4.20535131626591   -3.48647204419952    1.44131400667505
C        -2.11245359007396   -6.02698678005331    0.69604176480639
H        -0.07993168388351   -6.06053292588116    1.41927341050050
H        -4.16170085084516   -5.63068284647599    0.17826041218020
H        -2.04877282485561   -6.96274091836299    0.16424269276055
