13
 energy: -21.523711850438 gnorm: 0.000354784194 xtb: 6.4.1 (1a32961)
S         1.24699632405608   -0.98638173651378    0.00760697311920
C        -0.47613253767909   -1.25031207528743    0.00709440630946
C        -0.99979043842753   -2.54039704383958    0.00898198095770
N        -1.43611481245021   -3.60475503557366    0.01091126157584
C        -1.16500781569713   -0.06291360469393    0.00507239684728
C        -0.31394434087004    1.05419360054424    0.00393220910803
C         1.01339413541515    0.73122827834081    0.00502186111967
C         2.18111379588804    1.64819151908828    0.00431698394449
H        -2.23910540163261   -0.01080279192531    0.00449489371200
H        -0.67219397272378    2.06777769602777    0.00228838010847
H         1.84211125410469    2.68077424449445    0.00436903293725
H         2.80042249652491    1.47797333866370   -0.87557936826815
H         2.80136131349151    1.47812361067445    0.88355898852874
