96
 energy: -144.536105596502 gnorm: 0.000258783760 xtb: 6.4.1 (1a32961)
N        -0.96907453063702   -2.00633534942823   -0.34584668329614
C        -2.19433048576086   -1.48272848940866   -0.53404864706095
C        -3.08707695790980   -2.05300023138509   -1.45013824413324
C        -2.70723034222824   -3.15755648012109   -2.18125987768418
C        -1.43266618597128   -3.68138403886174   -1.98338095858211
C        -0.61183854998490   -3.07131995572149   -1.05735640096488
H         0.38245000675749   -3.44849388558514   -0.86392130196646
H        -1.09217499574896   -4.54337038320932   -2.53343062041957
H        -4.07092674265379   -1.63716958628151   -1.59042796769049
C        -2.51968806542342   -0.29917469350139    0.25454108142543
N        -1.57148744568763    0.13245354974413    1.11261319144850
C        -1.82512158142380    1.20600034741733    1.85793565343468
C        -3.00643272920810    1.91646111055212    1.79244107748120
C        -3.98580953967237    1.49702017787026    0.89671965925954
C        -3.73610624604209    0.38177267724186    0.12558136437134
H        -4.48194910033535    0.04495519273013   -0.57478089898741
H        -3.16060216598657    2.77510123073769    2.42537822385537
H        -1.03246174784380    1.49766597328058    2.52956717257130
Ir        0.42149999999880   -0.81649999999516    0.91330000000115
H         0.87260000000432   -2.23029999999644    1.54050000000681
B         0.39846910555052    0.58599879043259   -0.62592408502547
O        -0.11122436364952    0.24540239270665   -1.86232187843984
C        -0.20519059164328    1.40915723828846   -2.69299380417175
C         0.23053072692288    1.05925288429339   -4.11344686221533
H         1.19787179726428    0.56827938855259   -4.10550901550588
H         0.28006207087068    1.95790896924432   -4.72282659831645
H        -0.49375662853393    0.37668586383488   -4.55120229183410
C        -1.67977772997930    1.83631322264035   -2.70579300885970
H        -1.83471461659750    2.68749458466462   -3.36212446640908
H        -2.28040450964208    1.00085501238457   -3.05983121148169
H        -2.00739192474927    2.08510013931666   -1.69836076198436
C         0.71687567265507    2.43168045349342   -1.95091880030855
O         0.72883087669508    1.92225764077402   -0.60924221313966
C         2.16470758969952    2.38214378194281   -2.45323586645971
H         2.53589053232236    1.36398402359137   -2.36388765055023
H         2.24131601623381    2.73139456912078   -3.47875078560122
H         2.77748947286360    3.01581602887571   -1.81686937211782
C         0.22102847892936    3.87596189829882   -1.95886622059806
H        -0.73470540587030    3.96972280799382   -1.45266942405697
H         0.94231523021963    4.50263727119942   -1.43985015862283
H         0.12498597602147    4.22854524397397   -2.98253543525096
B         1.60770936642560    0.64865813396297    1.83213395265265
O         2.91571162290946    0.99244161723545    1.60955549829804
C         3.25296598770058    2.19774612271344    2.31155322376322
C         4.60320831879611    2.01627967186944    3.00698627206382
H         4.60230576201988    1.13442125214815    3.63978352975799
H         5.37625377013824    1.88897140843652    2.25301966506560
H         4.83923938099778    2.89225790669079    3.60440590366588
C         3.37577002538045    3.29810550875112    1.25143131012568
H         3.59256523854021    4.26222137178622    1.70118213081485
H         4.18408716402487    3.03371526370043    0.57322293985702
H         2.45581084105527    3.34316687076616    0.67521503510409
C         2.03582181951568    2.40163406560710    3.28618181535686
O         1.06264409362519    1.47213907405538    2.79047925140224
C         1.42425431990901    3.80356003473563    3.26057154062836
H         1.05025635507337    4.04226916962560    2.27036471464572
H         0.59031324814415    3.83453493071679    3.95764637962780
H         2.15994527582860    4.54282550991797    3.56430320769466
C         2.33266570617967    2.02355133175049    4.74233680093145
H         2.71796355534599    1.01077477178192    4.80731235926934
H         3.04460266109550    2.71307270773054    5.18531523586811
H         1.40422351594428    2.06276948774111    5.30758574785583
B         2.27819999996139   -1.33089999999079    0.17410000002798
O         3.12196790415089   -2.28577488482115    0.70237107841302
C         4.39242382313391   -2.24726641143306    0.03950021721606
C         5.34041345568952   -1.46203453887401    0.95267161811283
H         4.91991302834875   -0.47715964186365    1.13826120302879
H         5.41191697150190   -1.98075218010043    1.90622173127948
H         6.33266004381841   -1.37843456238568    0.52050753747454
C         4.91893990434761   -3.67052353372785   -0.13781716411076
H         5.11006286421357   -4.09775181566745    0.84316146858511
H         5.84638164315862   -3.65693464230794   -0.70333735889212
H         4.19430382934083   -4.29984963284956   -0.64360051986710
C         4.06045116054183   -1.48713880838535   -1.29085618848293
O         2.83164976372956   -0.81388209447404   -0.97437927101255
C         5.10546562569409   -0.45813259196873   -1.71723523773567
H         6.07550567688443   -0.93304905513051   -1.83520337158766
H         4.81068054443366   -0.02131787938398   -2.66817212290401
H         5.17223166100938    0.33804305709907   -0.98369589018926
C         3.76977809537062   -2.43031278767640   -2.46592789936842
H         3.00865587559821   -3.15360250593195   -2.18639151453583
H         3.38442581438197   -1.84310209751862   -3.29591510329928
H         4.67069951860021   -2.94604191122580   -2.78398312145622
H        -3.38502709569579   -3.60467747748819   -2.89233995350196
H        -4.91991777175145    2.03025905418366    0.80581589392057
C         0.23589999990245   -1.68140000005130    2.96030000008347
C        -1.08270618555370   -1.98049611938200    3.31003743884654
C         1.16660531148892   -1.63402884398423    3.99807331650988
C        -1.47814803425042   -2.10662958196200    4.62992320318962
H        -1.82139199418661   -2.11813613773775    2.53459680729964
C         0.77349246230923   -1.75973579688337    5.32592361786715
Cl        2.84281725717736   -1.44442534747389    3.63271642170875
C        -0.55404405215999   -1.98077370083179    5.65270284001971
H        -2.51135220577191   -2.30993485931938    4.86770858699673
Cl        1.94714169216426   -1.66120881041562    6.59205164780831
H        -0.84246369488044   -2.07181557403913    6.68683014440954
