12
 energy: -23.429142445348 gnorm: 0.000291991448 xtb: 6.4.1 (1a32961)
C        -2.35424767805524   -1.88405020564136    0.00359559231841
C        -3.25422779303155   -0.83146594158452    0.00834690221300
C        -2.75462166985772    0.45769540445075   -0.00033212156173
F        -3.61917739674954    1.49990160654680    0.00451270116384
C        -1.39827343564668    0.73048090718034   -0.01221388111107
C        -0.52677620829766   -0.34343031369632   -0.01524571236892
I         1.56263399491007    0.02500138647797   -0.03560044899444
C        -0.98900141562794   -1.64787608067167   -0.00810877382315
H        -2.71749877212624   -2.89939483469076    0.01051525047013
H        -4.31938922872799   -0.99546195616415    0.01918235477486
H        -1.05430371077140    1.75214005385002   -0.01886288008341
H        -0.29529668601810   -2.47301002605709   -0.01179898299753
