118
 energy: -173.578816591955 gnorm: 0.000326368263 xtb: 6.4.1 (1a32961)
N        -0.96510000000006   -2.11530000000006   -0.24089999999997
C        -2.24700000000028   -1.69839999999996   -0.36219999999999
C        -3.14039999999991   -2.36819999999999   -1.21199999999997
C        -2.70219999999999   -3.47560000000000   -1.93049999999998
C        -1.37779999999999   -3.89879999999999   -1.78759999999994
C        -0.54290000000000   -3.18669999999986   -0.93510000000008
H         0.49809999999998   -3.45630000000000   -0.78939999999999
H        -0.99569999999999   -4.76029999999999   -2.32770000000000
H        -4.16499999999999   -2.02890000000000   -1.31830000000001
C        -2.62130000000003   -0.50949999999999    0.44100000000002
N        -1.62600000000000    0.07329999999997    1.16020000000006
C        -1.89680000000000    1.15240000000002    1.91689999999999
C        -3.17229999999999    1.70330000000001    1.99649999999998
C        -4.20509999999997    1.11740000000001    1.26270000000000
C        -3.92610000000000    0.00250000000000    0.47819999999999
H        -4.71960000000000   -0.46420000000001   -0.09520000000000
H        -3.34630000000001    2.57509999999999    2.62069999999999
H        -1.04450000000001    1.57420000000000    2.43690000000000
Ir        0.42150000000000   -0.81650000000000    0.91330000000000
H         0.87260000000000   -2.23030000000000    1.54050000000000
B         0.50670000000003    0.41560000000012   -0.81540000000008
O         0.19500000000000   -0.04699999999999   -2.09149999999989
C         0.00650000000001    1.10040000000001   -2.95430000000004
C         0.49020000000001    0.74740000000000   -4.35779999999999
H         1.51610000000000    0.37380000000000   -4.33700000000000
H         0.44730000000000    1.62239999999999   -5.01670000000000
H        -0.14739999999999   -0.03390000000000   -4.78430000000000
C        -1.50119999999997    1.39560000000000   -2.96670000000000
H        -1.75370000000000    2.21460000000000   -3.64850000000001
H        -2.03200000000000    0.49450000000000   -3.28930000000000
H        -1.85170000000000    1.65210000000000   -1.96220000000000
C         0.84230000000000    2.20670000000000   -2.22040000000001
O         0.75199999999999    1.78259999999997   -0.83689999999992
C         2.32930000000001    2.18620000000000   -2.59900000000000
H         2.74130000000000    1.18500000000000   -2.45750000000000
H         2.48870000000001    2.51300000000000   -3.63180000000000
H         2.87200000000001    2.86270000000000   -1.93200000000000
C         0.28440000000005    3.62289999999999   -2.33660000000000
H        -0.72650000000000    3.69040000000000   -1.92910000000000
H         0.92130000000000    4.31480000000000   -1.77610000000000
H         0.26430000000000    3.94810000000000   -3.38320000000000
B         1.56299999999998    0.60960000000001    1.84840000000000
O         2.92780000000004    0.55230000000000    2.15020000000001
C         3.36330000000001    1.88660000000000    2.50260000000000
C         4.53140000000000    1.78589999999998    3.47740000000018
H         4.27910000000000    1.16089999999999    4.33690000000002
H         5.39389999999999    1.33790000000001    2.97339999999998
H         4.82390000000000    2.77870000000001    3.83820000000000
C         3.79700000000005    2.56850000000000    1.19670000000000
H         4.20019999999999    3.57089999999999    1.37680000000000
H         4.56740000000000    1.95560000000000    0.72110000000000
H         2.95240000000001    2.63260000000000    0.50539999999999
C         2.05040000000000    2.50090000000000    3.09320000000000
O         1.03749999999999    1.81620000000000    2.31910000000000
C         1.89099999999998    4.00449999999997    2.88649999999999
H         1.87289999999999    4.25440000000000    1.82410000000001
H         0.94939999999999    4.34260000000001    3.33169999999999
H         2.71080000000000    4.55150000000001    3.36629999999999
C         1.82469999999999    2.13200000000001    4.56520000000000
H         1.92610000000000    1.05330000000001    4.71320000000000
H         2.52609999999999    2.65280000000000    5.22540000000000
H         0.80629999999999    2.41580000000000    4.84899999999999
B         2.27820000000000   -1.33090000000001    0.17410000000000
O         2.89460000000002   -2.57739999999999    0.38450000000000
C         4.26930000000001   -2.48199999999999   -0.07210000000000
C         5.10900000000000   -2.05379999999999    1.14010000000000
H         4.76350000000000   -1.08740000000000    1.51750000000001
H         4.98050000000000   -2.79469999999999    1.93590000000001
H         6.17420000000001   -1.99289999999999    0.89300000000000
C         4.71950000000000   -3.84660000000000   -0.58469999999998
H         4.75280000000001   -4.56130000000000    0.24420000000001
H         5.72330000000000   -3.78369999999999   -1.02010000000000
H         4.03500000000001   -4.23600000000000   -1.34170000000000
C         4.16440000000001   -1.36220000000000   -1.16300000000000
O         3.08520000000000   -0.55030000000000   -0.65400000000000
C         5.40720000000000   -0.48869999999999   -1.31550000000001
H         6.27320000000001   -1.09010000000000   -1.61529999999999
H         5.23300000000000    0.26930000000000   -2.08589999999999
H         5.64270000000000    0.02650000000000   -0.38239999999999
C         3.71800000000000   -1.89830000000000   -2.53110000000000
H         2.82530000000001   -2.52160000000000   -2.42740000000000
H         3.46090000000000   -1.05250000000000   -3.17550000000000
H         4.50570000000001   -2.48290000000000   -3.01790000000000
H        -3.38499999999999   -4.00130000000001   -2.59310000000000
H        -5.21400000000000    1.52079999999999    1.29959999999999
C         0.23589999999999   -1.68139999999999    2.96030000000001
C        -1.00797716009849   -2.10958559103730    3.41471022356737
C         1.30312044240388   -1.67636814579486    3.86521765700601
C        -1.16434365062198   -2.49078219400717    4.75193917129798
H        -1.86125460093709   -2.17994746425900    2.75186643454741
C         1.18140618403042   -2.05938254080472    5.19256002596188
H         2.28084609569483   -1.38526158599815    3.50385586863783
C        -2.28506103738203   -2.99975473686294    5.49026715874904
C        -0.06898357281577   -2.49170979211854    5.62647286837430
H         2.03445310765583   -2.06018464356797    5.85560648704692
C        -1.82857328201198   -3.32648690418014    6.78032652334402
C        -3.62507633527828   -3.19334119847339    5.14996054901633
N        -0.45998088810180   -3.02597727988102    6.86847741175773
C        -2.70165706153573   -3.83219110612914    7.74059796168627
C        -4.48753789226958   -3.70297561234202    6.10665419185741
H        -3.97475538878823   -2.94479409944037    4.15706139929697
C         0.43735439401556   -3.34453677821850    7.87814501434461
C        -4.03056375316075   -4.01361910592394    7.38054238810543
H        -2.36170556593233   -4.07780950745891    8.73459869663861
H        -5.53017927426509   -3.85854573920626    5.86182473348897
O         1.60174264865902   -3.00823662285834    7.87068030716100
O        -0.11895151395275   -4.08751933273239    8.84740272562714
H        -4.72244295488280   -4.40567940559497    8.11509833663029
C         0.75843959308629   -4.55021135568066    9.89594144453566
C         0.91660564037452   -3.47233531485554   10.96296219335809
C         0.14521034770532   -5.83013811643447   10.44896497079313
H         1.73565295155871   -4.75848837284920    9.44147155916430
H        -0.05527611362452   -3.21507168147576   11.38522002616861
H         1.36291894665254   -2.57880513877100   10.52628370153714
H         1.56775884966614   -3.83804440763723   11.75563269607547
H        -0.81932429559637   -5.61454596542651   10.90849212418633
H         0.81054214317289   -6.25709220005309   11.19796682822223
H        -0.00119001965403   -6.55451898462803    9.64805995359017
