118
 energy: -173.251534475745 gnorm: 0.021146210179 xtb: 6.4.1 (1a32961)
N        -0.96510000000000   -2.11530000000000   -0.24090000000000
C        -2.24700000000000   -1.69840000000002   -0.36219999999999
C        -3.14040000000000   -2.36820000000000   -1.21200000000000
C        -2.70220000000000   -3.47560000000002   -1.93049999999999
C        -1.37780000000000   -3.89880000000000   -1.78760000000000
C        -0.54289999999999   -3.18670000000000   -0.93510000000000
H         0.49810000000001   -3.45630000000000   -0.78940000000000
H        -0.99570000000000   -4.76030000000000   -2.32770000000000
H        -4.16500000000000   -2.02890000000000   -1.31830000000000
C        -2.62130000000000   -0.50950000000002    0.44100000000000
N        -1.62600000000000    0.07330000000000    1.16020000000001
C        -1.89680000000000    1.15240000000000    1.91690000000001
C        -3.17230000000000    1.70330000000000    1.99650000000000
C        -4.20510000000001    1.11740000000000    1.26270000000000
C        -3.92610000000000    0.00250000000000    0.47820000000000
H        -4.71960000000000   -0.46420000000001   -0.09520000000000
H        -3.34630000000000    2.57510000000000    2.62070000000001
H        -1.04450000000000    1.57420000000000    2.43690000000000
Ir        0.42150000000000   -0.81650000000000    0.91330000000000
H         0.87260000000000   -2.23030000000000    1.54050000000000
B         0.50670000000000    0.41560000000000   -0.81540000000000
O         0.19500000000000   -0.04700000000001   -2.09150000000000
C         0.00649999999999    1.10040000000000   -2.95430000000000
C         0.49019999999999    0.74740000000001   -4.35780000000000
H         1.51610000000000    0.37380000000000   -4.33700000000000
H         0.44729999999999    1.62240000000000   -5.01670000000000
H        -0.14740000000001   -0.03390000000000   -4.78430000000000
C        -1.50120000000001    1.39559999999999   -2.96669999999999
H        -1.75370000000000    2.21459999999999   -3.64850000000000
H        -2.03200000000001    0.49450000000001   -3.28929999999999
H        -1.85170000000001    1.65209999999999   -1.96220000000000
C         0.84230000000000    2.20670000000000   -2.22040000000000
O         0.75200000000000    1.78260000000000   -0.83690000000000
C         2.32930000000000    2.18620000000000   -2.59900000000000
H         2.74130000000000    1.18500000000000   -2.45750000000000
H         2.48869999999999    2.51300000000000   -3.63180000000000
H         2.87199999999999    2.86270000000000   -1.93199999999999
C         0.28440000000000    3.62290000000000   -2.33660000000000
H        -0.72650000000002    3.69040000000001   -1.92910000000000
H         0.92129999999999    4.31480000000000   -1.77610000000000
H         0.26430000000000    3.94810000000000   -3.38320000000000
B         1.56300000000000    0.60960000000000    1.84840000000000
O         2.92780000000000    0.55230000000000    2.15020000000000
C         3.36330000000000    1.88660000000001    2.50260000000000
C         4.53139999999999    1.78590000000000    3.47740000000000
H         4.27910000000000    1.16090000000000    4.33690000000000
H         5.39389999999999    1.33790000000000    2.97340000000000
H         4.82390000000000    2.77870000000000    3.83820000000000
C         3.79700000000000    2.56850000000000    1.19670000000000
H         4.20020000000001    3.57090000000001    1.37680000000000
H         4.56740000000000    1.95560000000001    0.72110000000000
H         2.95240000000000    2.63260000000000    0.50539999999999
C         2.05040000000000    2.50090000000000    3.09320000000000
O         1.03750000000000    1.81620000000000    2.31910000000000
C         1.89100000000000    4.00450000000000    2.88650000000001
H         1.87290000000000    4.25440000000000    1.82410000000000
H         0.94940000000000    4.34260000000000    3.33170000000000
H         2.71080000000000    4.55150000000000    3.36630000000000
C         1.82470000000000    2.13200000000000    4.56520000000000
H         1.92610000000000    1.05330000000000    4.71320000000000
H         2.52610000000001    2.65280000000000    5.22540000000000
H         0.80630000000000    2.41580000000000    4.84900000000000
B         2.27820000000000   -1.33090000000000    0.17410000000000
O         2.89460000000000   -2.57740000000000    0.38450000000000
C         4.26930000000000   -2.48199999999999   -0.07210000000000
C         5.10900000000000   -2.05379999999998    1.14010000000000
H         4.76350000000000   -1.08740000000001    1.51750000000000
H         4.98050000000000   -2.79470000000001    1.93590000000000
H         6.17420000000001   -1.99289999999999    0.89300000000000
C         4.71950000000000   -3.84660000000000   -0.58470000000000
H         4.75280000000001   -4.56130000000000    0.24420000000000
H         5.72330000000001   -3.78370000000000   -1.02010000000001
H         4.03499999999999   -4.23599999999999   -1.34170000000000
C         4.16440000000000   -1.36220000000001   -1.16300000000000
O         3.08520000000000   -0.55030000000000   -0.65400000000000
C         5.40720000000000   -0.48870000000001   -1.31549999999999
H         6.27320000000000   -1.09009999999999   -1.61529999999999
H         5.23300000000000    0.26930000000000   -2.08590000000000
H         5.64270000000000    0.02650000000000   -0.38240000000001
C         3.71800000000001   -1.89829999999998   -2.53109999999999
H         2.82530000000000   -2.52160000000000   -2.42740000000000
H         3.46090000000000   -1.05250000000000   -3.17550000000000
H         4.50569999999999   -2.48290000000000   -3.01790000000001
H        -3.38500000000000   -4.00129999999999   -2.59309999999999
H        -5.21400000000000    1.52080000000000    1.29960000000002
C         0.23590000000004   -1.68140000000003    2.96029999999998
C        -0.75724198757909   -2.30347855651077    3.69925209601168
C         1.59304401433528   -1.66537056386996    3.76098022416406
C        -0.63369196679148   -2.88720841927865    4.96488787722939
H        -1.74589226668109   -2.34543180018487    3.25781172219631
N         2.97726180298193   -1.02231320295631    3.77977346431610
C         1.67212134078305   -2.35291975019807    5.00041661091769
C         0.58025211971364   -2.98282671749842    5.60374865296779
H        -1.50193339026936   -3.30732076067854    5.45541376112451
C         4.35550360291570   -1.48246119313410    3.46520710984637
C         3.54183537852405   -1.11303316028509    5.10148616052214
C         2.93400522457973   -2.22000425467316    5.70817359753353
H         0.73053370762810   -3.47173429828237    6.55810627621147
O         4.59234690545155   -2.67217412696600    3.58187138420817
O         5.40951229065964   -0.58944341226775    3.29113928070458
C         4.74203127793182   -0.59538857667338    5.64348151532171
C         3.69833645527193   -2.98761082634498    6.59706920887278
C         6.58416032959118   -0.33886824199704    2.40455828974428
C         5.48254792111100   -1.37556536623297    6.51408740378851
H         5.25375950816240    0.28369062541664    5.28740052186594
C         5.00086603348803   -2.61189183940138    6.91155038166466
H         3.34341777024282   -3.94286979995448    6.95691306754278
C         7.39159536205187    0.97294834718608    2.52046583794778
C         7.66686887339164   -1.42619115765008    2.34202152385895
H         6.17938066614408   -0.18311057118079    1.39997309361450
H         6.47786541477027   -1.03657832465001    6.78017094967385
H         5.66810350804032   -3.27820542135080    7.44365211625573
H         7.79658792188827    1.19415468824894    3.50470477112486
H         6.87627776426993    1.85306849286617    2.13297251868031
H         8.22947531422862    0.82794291930973    1.83184272755118
H         8.49900645297212   -1.17624853383627    3.00034886072613
H         8.06654561794209   -1.45801607275874    1.32357972161576
H         7.30541871468630   -2.41839034867454    2.60068770185161
