104
 energy: -151.407336894885 gnorm: 0.001313394542 xtb: 6.4.1 (1a32961)
N        -0.96509999999997   -2.11530000000002   -0.24089999999996
C        -2.24700000000003   -1.69839999999999   -0.36219999999996
C        -3.14040000000001   -2.36819999999995   -1.21199999999997
C        -2.70219999999998   -3.47559999999999   -1.93050000000000
C        -1.37780000000006   -3.89879999999999   -1.78760000000000
C        -0.54289999999999   -3.18670000000003   -0.93509999999993
H         0.49810000000001   -3.45630000000000   -0.78940000000000
H        -0.99569999999999   -4.76030000000002   -2.32770000000001
H        -4.16499999999999   -2.02890000000001   -1.31830000000000
C        -2.62130000000000   -0.50950000000001    0.44100000000003
N        -1.62600000000001    0.07330000000001    1.16020000000002
C        -1.89680000000002    1.15240000000001    1.91690000000003
C        -3.17229999999996    1.70330000000001    1.99649999999999
C        -4.20510000000000    1.11740000000001    1.26270000000001
C        -3.92609999999998    0.00250000000001    0.47819999999999
H        -4.71959999999999   -0.46420000000000   -0.09519999999998
H        -3.34629999999999    2.57510000000000    2.62070000000001
H        -1.04450000000000    1.57420000000000    2.43690000000000
Ir        0.42150000000000   -0.81650000000000    0.91330000000000
H         0.87260000000000   -2.23030000000000    1.54050000000000
B         0.50670000000000    0.41559999999996   -0.81540000000001
O         0.19500000000000   -0.04699999999997   -2.09149999999999
C         0.00649999999997    1.10040000000001   -2.95429999999999
C         0.49020000000000    0.74739999999998   -4.35780000000001
H         1.51610000000000    0.37379999999999   -4.33700000000000
H         0.44730000000000    1.62239999999998   -5.01670000000002
H        -0.14739999999998   -0.03390000000000   -4.78430000000001
C        -1.50120000000004    1.39559999999999   -2.96669999999998
H        -1.75369999999999    2.21460000000006   -3.64850000000001
H        -2.03199999999998    0.49449999999996   -3.28930000000000
H        -1.85170000000000    1.65210000000000   -1.96220000000001
C         0.84229999999998    2.20670000000000   -2.22040000000000
O         0.75200000000000    1.78260000000001   -0.83690000000001
C         2.32930000000000    2.18619999999998   -2.59900000000000
H         2.74130000000001    1.18499999999999   -2.45750000000000
H         2.48870000000000    2.51299999999999   -3.63179999999999
H         2.87200000000000    2.86269999999999   -1.93200000000000
C         0.28439999999997    3.62290000000000   -2.33660000000000
H        -0.72649999999999    3.69040000000000   -1.92910000000000
H         0.92130000000000    4.31480000000001   -1.77610000000000
H         0.26430000000000    3.94810000000002   -3.38319999999998
B         1.56300000000000    0.60960000000000    1.84839999999999
O         2.92780000000000    0.55230000000000    2.15020000000001
C         3.36329999999999    1.88659999999997    2.50260000000001
C         4.53139999999998    1.78590000000004    3.47739999999999
H         4.27910000000000    1.16090000000000    4.33690000000001
H         5.39390000000002    1.33789999999999    2.97340000000000
H         4.82390000000000    2.77869999999997    3.83820000000000
C         3.79699999999998    2.56850000000001    1.19669999999998
H         4.20020000000000    3.57090000000001    1.37680000000000
H         4.56740000000000    1.95560000000000    0.72110000000001
H         2.95240000000000    2.63260000000000    0.50539999999998
C         2.05039999999999    2.50090000000002    3.09319999999999
O         1.03750000000000    1.81620000000003    2.31909999999998
C         1.89100000000000    4.00449999999997    2.88650000000002
H         1.87290000000000    4.25440000000000    1.82409999999997
H         0.94940000000000    4.34259999999999    3.33170000000000
H         2.71080000000002    4.55150000000000    3.36630000000001
C         1.82470000000002    2.13200000000001    4.56519999999996
H         1.92610000000000    1.05329999999997    4.71320000000000
H         2.52609999999998    2.65280000000000    5.22540000000000
H         0.80630000000000    2.41580000000000    4.84900000000000
B         2.27820000000000   -1.33090000000000    0.17410000000000
O         2.89460000000000   -2.57739999999999    0.38450000000000
C         4.26930000000000   -2.48200000000000   -0.07210000000000
C         5.10900000000000   -2.05380000000002    1.14010000000000
H         4.76350000000000   -1.08740000000000    1.51750000000000
H         4.98050000000000   -2.79470000000000    1.93590000000000
H         6.17420000000000   -1.99290000000001    0.89300000000000
C         4.71950000000001   -3.84660000000001   -0.58470000000002
H         4.75280000000000   -4.56129999999999    0.24419999999999
H         5.72330000000000   -3.78370000000000   -1.02010000000001
H         4.03500000000001   -4.23599999999999   -1.34169999999997
C         4.16440000000000   -1.36220000000001   -1.16300000000001
O         3.08520000000000   -0.55029999999999   -0.65400000000000
C         5.40720000000001   -0.48870000000000   -1.31549999999999
H         6.27320000000001   -1.09010000000000   -1.61530000000000
H         5.23300000000000    0.26930000000000   -2.08590000000000
H         5.64269999999999    0.02650000000000   -0.38240000000001
C         3.71799999999999   -1.89829999999999   -2.53110000000001
H         2.82530000000000   -2.52159999999999   -2.42740000000000
H         3.46090000000001   -1.05250000000000   -3.17549999999998
H         4.50569999999999   -2.48290000000000   -3.01790000000001
H        -3.38500000000002   -4.00130000000002   -2.59309999999998
H        -5.21400000000000    1.52080000000000    1.29960000000000
C         0.23589999999997   -1.68140000000000    2.96030000000000
C        -0.94018969508393   -2.31975928486013    3.39165719173730
C         1.26239594775480   -1.49817205201562    3.90493647230421
C        -1.06688278032619   -2.59332533338411    4.75790901886851
C        -2.05340391477228   -2.84724985205455    2.54030168222155
C         1.15729182819589   -1.79803425738973    5.25696779512115
H         2.21786906545907   -1.14046877042314    3.54527063486659
C        -0.04624536880941   -2.33707080104633    5.67498551945483
N        -2.09560013648922   -3.22563721564332    5.42845028617947
H        -2.62182973864849   -3.57420328332819    3.12114542528273
H        -1.66207677662093   -3.32922985038810    1.64626311758570
H        -2.73902260905338   -2.05330762043146    2.24444172176235
H         1.98352669735565   -1.66427273527582    5.93900032894279
O        -0.45500873699224   -2.80607454823038    6.89291645745331
C        -1.69457963364733   -3.32841682175153    6.65522659100142
C        -2.43946509788920   -3.97090185802314    7.75789199465935
H        -3.47731316335377   -4.09580423697246    7.45328877844282
H        -2.37839914201334   -3.36304887276245    8.66038418358851
H        -2.01032891562233   -4.95112226526574    7.97210218226991
