104
 energy: -151.424976445978 gnorm: 0.000230466357 xtb: 6.4.1 (1a32961)
N        -0.89316915736314   -1.93205100130308   -0.53275473738468
C        -2.10169989030164   -1.36708430884309   -0.71842759169041
C        -2.87488408531878   -1.67117644766320   -1.84400403307397
C        -2.40484624813116   -2.57164757184487   -2.77533803793855
C        -1.16142795798491   -3.16044357501546   -2.56357761803974
C        -0.45163822436370   -2.80199574078954   -1.43653951994030
H         0.52036156460098   -3.22884863663181   -1.23360927483022
H        -0.75697294061748   -3.87439682160168   -3.26260015677332
H        -3.82696201599731   -1.19106154426050   -2.00077711837199
C        -2.53483392779307   -0.41767384074321    0.30095310138651
N        -1.60765945093537   -0.03177547585004    1.20202778325937
C        -1.96359966577965    0.82265781204934    2.15667731385947
C        -3.23514014828519    1.34622038877295    2.27690258657087
C        -4.20278225850121    0.95903238856390    1.35409600589233
C        -3.84510721239637    0.07111505843011    0.36199981224720
H        -4.58464313759612   -0.25856497817297   -0.34903620297577
H        -3.46884928077958    2.03139738240798    3.07565352315142
H        -1.18039073084132    1.09742516163315    2.84611191854219
Ir        0.42149999999986   -0.81649999999996    0.91329999999987
H         0.87260000000010   -2.23030000000009    1.54049999999978
B         0.43106917317696    0.66333149116287   -0.57588860234516
O        -0.34316420468029    0.50030839585861   -1.71283174546879
C        -0.39872656476534    1.72418375434291   -2.45136609428263
C        -0.35006530505287    1.42628095743225   -3.94769267134822
H         0.50118590481484    0.79906414100100   -4.18980002159476
H        -0.29313909343588    2.35383019927955   -4.51155763020580
H        -1.25527015490393    0.89512862786169   -4.23241657955925
C        -1.74088038752493    2.38925672196362   -2.11245659720638
H        -1.87570208308703    3.31115986350997   -2.67025012862367
H        -2.54345950387858    1.69971388349911   -2.36650704429483
H        -1.79671680315760    2.59212794448558   -1.04484372737874
C         0.82691448010556    2.51486920502979   -1.88939890452355
O         1.02316098726927    1.90583932956815   -0.60599523452966
C         2.10653472608806    2.26609488421474   -2.69693669705877
H         2.29230029972697    1.19606291440545   -2.74888362367071
H         2.03548865169171    2.69104851088208   -3.69400595398964
H         2.94382793775619    2.72352132991301   -2.17478167842971
C         0.60638729199571    4.01787060415842   -1.72765816271736
H        -0.17280161711475    4.22402362607879   -1.00013232051566
H         1.52752507179518    4.47929872980031   -1.37923806707619
H         0.33564560818446    4.45924882339806   -2.68342692582698
B         1.51674717092998    0.70890989804252    1.81802638177334
O         2.87676772030272    0.87448904039127    1.86737630965159
C         3.21071229937736    2.15764651260264    2.41407505442854
C         4.36664575901285    2.00086968268167    3.40287800663287
H         4.12971569545237    1.27256564273707    4.17102278137452
H         5.24402202934334    1.64930575872760    2.86613737415074
H         4.59771024529703    2.95672345711246    3.86495519513211
C         3.66652431793643    3.02950462592512    1.23805040125019
H         3.89305672044642    4.04280331024864    1.55549620347846
H         4.56120432791111    2.58782060716826    0.80488408179890
H         2.88946044292511    3.02988482951999    0.47903903111144
C         1.85555579347135    2.63427487755996    3.05116759407599
O         0.89273960732604    1.74513177648823    2.47159848178812
C         1.46065102545517    4.07222132664002    2.71483261406549
H         1.33740060530828    4.19015799634716    1.64358079936141
H         0.51082557594543    4.29857238851596    3.19331047577043
H         2.21145145389580    4.76749508576241    3.07997933054876
C         1.79300681755504    2.43973689621198    4.57173308840364
H         1.98014827954457    1.39959370804300    4.82286185867854
H         2.50852970521996    3.07990773363045    5.07824874293840
H         0.79176262940409    2.69076024087977    4.91469486644805
B         2.27819999999896   -1.33090000000068    0.17409999999762
O         3.22010085430344   -2.10058807432363    0.82135600453058
C         4.46119991445435   -2.08486407660923    0.10670945782404
C         5.39103178983281   -1.12845182386755    0.86128939032566
H         4.89837668862005   -0.16602663318835    0.96220162474381
H         5.55391454395872   -1.52532179494497    1.86014032685287
H         6.34853074282710   -1.02265769306724    0.36071896017461
C         5.06911645791208   -3.48797576241226    0.11529887928699
H         5.30013207983363   -3.76085480804600    1.14154383928381
H         5.98502260122432   -3.50277263333978   -0.46878800086079
H         4.37471642079087   -4.22298958943107   -0.27755141532011
C         4.04316681082366   -1.55062227207006   -1.31008621649470
O         2.75070092512398   -0.97338660376708   -1.06980110434186
C         4.96525662929108   -0.47721427355126   -1.88733619674819
H         5.97859680923027   -0.85735783800865   -1.98122248610528
H         4.60528015780889   -0.19220077544610   -2.87278779196804
H         4.95853213065781    0.40519812314873   -1.25675003318381
C         3.85981648498842   -2.66381766894782   -2.35051245762682
H         3.17179070054455   -3.41771347641321   -1.97847207073255
H         3.43025042529578   -2.23055631220581   -3.25041770443128
H         4.81054476266696   -3.12543947003551   -2.59935270054236
H        -2.98761536340947   -2.80997021383197   -3.65222403168900
H        -5.21151556384361    1.33829503761528    1.41665600904975
C         0.23590000000220   -1.68139999999971    2.96030000000040
C        -0.96856520308734   -2.23934111776601    3.38734693322500
C         1.21229897871996   -1.31880488543020    3.90484560639719
C        -1.20250949637521   -2.24904974176864    4.76495742230699
C        -1.99061339454872   -2.87314571418159    2.49555567066720
C         0.99668181391337   -1.34685625800872    5.27054953764884
H         2.18160660998470   -1.02129354315960    3.53828174651639
C        -0.24631211771958   -1.78917082851941    5.68210386455052
N        -2.29859271199602   -2.69082370086079    5.48749665341646
H        -2.34547773347351   -3.79310535268737    2.95664231528743
H        -1.56797549905567   -3.09132382633746    1.51960934282603
H        -2.85418822801307   -2.22064684970918    2.37176967951472
H         1.75510730628965   -1.06199568890182    5.98256410340006
O        -0.76665139933676   -1.94663791468202    6.93547708285212
C        -1.99855591352923   -2.49220269608351    6.72401894465496
C        -2.84737317199802   -2.79721911041682    7.89731972922031
H        -3.79319591650260   -3.20122914701498    7.55284201018741
H        -3.01697895164244   -1.89172271310548    8.47715772442758
H        -2.34570244057122   -3.52127776502843    8.53713331230256
