18
 energy: -27.088304870097 gnorm: 0.000200703920 xtb: 6.4.1 (1a32961)
C         1.36076472756010    1.42688343559337   -0.00073204174874
C         0.16503871949749    0.72832641336820    0.00016691306463
C         0.12428103379189   -0.68672144396851   -0.00076919535575
N        -1.18603690594377   -1.10396500804057    0.00035952181887
C        -1.90657173178719   -0.01954614960293    0.00191820970268
N        -1.14936496051837    1.12159999625006    0.00195325275777
C        -3.38888247061579    0.02466205780480    0.00324530229597
C         1.30623275772493   -1.41825926703840   -0.00263484616401
C         2.49434982583975   -0.71579141706663   -0.00349640259611
C         2.52302515494969    0.68004824889771   -0.00259478223093
H         1.38464830546994    2.50635630562185    0.00002644247290
H        -1.49230306164944    2.06742253927142    0.00296663733000
H        -3.77302420692597   -0.99027527111372    0.00063744679423
H        -3.75300569274170    0.54956175503358   -0.87890052076003
H        -3.75171854048155    0.54436727696227    0.88900383084722
H         1.28360193808834   -2.49647431604026   -0.00347507957533
H         3.42980566790612   -1.25615946317558   -0.00502079663528
H         3.47726943983552    1.18606430724332   -0.00335389201811
