100
 energy: -144.170112901668 gnorm: 0.000225761875 xtb: 6.4.1 (1a32961)
N        -0.94002019013071   -2.01506962228837   -0.38818420354475
C        -2.17950432809585   -1.51424315629579   -0.55313091697867
C        -3.01802655770663   -1.98540416894892   -1.57036431275747
C        -2.57699966648803   -2.98009147693552   -2.41563367961363
C        -1.29668411692852   -3.49496726847548   -2.22808638455784
C        -0.52617993151572   -2.97772139514811   -1.20780493570041
H         0.47324852779464   -3.34583982392382   -1.02351565615289
H        -0.91234535746751   -4.27600271001668   -2.86366897708009
H        -4.00224168529202   -1.56854934427298   -1.70779128101889
C        -2.57383886783143   -0.45688370906257    0.37087389151965
N        -1.61716928095672   -0.00473014583622    1.20974310907908
C        -1.92604120348026    0.95959232938761    2.07371753173397
C        -3.18066119217610    1.52824310448612    2.16156894672435
C        -4.17918232118271    1.07191384144821    1.30500839493215
C        -3.86884800028463    0.07450563386706    0.40534360058556
H        -4.63099286238431   -0.29755979677424   -0.25907351260086
H        -3.37736175103376    2.30205989756231    2.88559264335187
H        -1.11664298810641    1.28236484909306    2.71033412879786
Ir        0.42150000000012   -0.81649999999982    0.91330000000009
H         0.87259999999994   -2.23030000000015    1.54049999999983
B         0.37297905677423    0.60955580076222   -0.60723335433484
O        -0.32149662801233    0.33745513717163   -1.77559799882522
C        -0.46433781333658    1.53289298391414   -2.54851162370661
C        -0.30122963786347    1.21232773798431   -4.03194705285999
H         0.61196835120231    0.65318528753389   -4.20665378293158
H        -0.28457645998023    2.13068484292606   -4.61316783011900
H        -1.14067011555680    0.60365141605169   -4.35995232532005
C        -1.88490891144820    2.06069076847140   -2.29780902837778
H        -2.08609672027648    2.94704361581280   -2.89209128275493
H        -2.59731231001390    1.28318348139030   -2.56742251734651
H        -2.01771513674628    2.28805615058445   -1.24174835608505
C         0.63931537913987    2.46008380081117   -1.94395271073403
O         0.81864116307354    1.91097962072675   -0.63187634402676
C         1.98383934465249    2.31848001311863   -2.66791349934159
H         2.27774515466268    1.27145726594124   -2.67122202856064
H         1.93257384444686    2.70550233290642   -3.68158297296947
H         2.73756936808588    2.87220573719233   -2.11302139943680
C         0.26119456337967    3.93664268202861   -1.84811928709382
H        -0.58147628100845    4.08480863200877   -1.17987789433560
H         1.10698760049420    4.49636517074501   -1.45612577240106
H         0.01385853348759    4.32164305034113   -2.83427290573976
B         1.57060673296441    0.64619333980878    1.85887456093325
O         2.93534310623727    0.79760856785776    1.86053854788638
C         3.28363398199077    2.08371992046812    2.39439048517388
C         4.54554252471951    1.96938895877822    3.24751124144754
H         4.44328867909085    1.18881428842710    3.99395359012920
H         5.38750978073949    1.71755592666757    2.60774213998740
H         4.75052848768996    2.91743876166593    3.73749541992565
C         3.55672975466551    2.99458571014540    1.19138334702626
H         3.81786556033225    4.00146512906121    1.50340586169751
H         4.38150566076307    2.57558779252766    0.61936346390697
H         2.67826432332266    3.00545807873726    0.55136100859325
C         1.99024631856555    2.49050333548727    3.17885979296028
O         0.98485936262010    1.66557444138611    2.57499341751090
C         1.58964860237530    3.95808585232357    3.04055070009145
H         1.34938565982737    4.19251796302868    2.00893958898660
H         0.70745177246235    4.14519506005804    3.64782920116561
H         2.39473496717081    4.60107930667671    3.38583479878191
C         2.04803054789412    2.11810855544709    4.66578512361660
H         2.28246926858665    1.06305920308685    4.77485426317322
H         2.78297223694228    2.71939059075089    5.19211578922522
H         1.06947307674193    2.28826466341727    5.10852670544621
B         2.27819999999937   -1.33090000000085    0.17409999999968
O         3.11599793823309   -2.29282463170161    0.69422921371656
C         4.39882892500423   -2.23426791739227    0.05757212855068
C         5.33462799550512   -1.50869494824895    1.03025958891024
H         4.89886274235983   -0.54694143304226    1.28529893178547
H         5.40439503115651   -2.09618218922215    1.94218669308131
H         6.32836347122584   -1.38424900846075    0.61131392679433
C         4.91519375369920   -3.65373042451471   -0.17819669925282
H         5.05998020855269   -4.13657832981991    0.78457672690575
H         5.86527373769804   -3.62321221741869   -0.70415612020922
H         4.20488932803355   -4.24476916037847   -0.74655347840489
C         4.10474512789086   -1.40854278332908   -1.24538493174197
O         2.84682097596605   -0.78272182611620   -0.95243067796942
C         5.13460943805956   -0.32607451205858   -1.56472429642439
H         6.11834498818730   -0.76656572452301   -1.70106346898077
H         4.84457696855086    0.17955798218529   -2.48241943913378
H         5.16606408843375    0.40988788875897   -0.76902100051827
C         3.89829723279294   -2.28511658209904   -2.48824030840791
H         3.13235887740228   -3.03195318168108   -2.29903035654306
H         3.55665852508273   -1.65408137911102   -3.30518828783028
H         4.82362029268602   -2.77173423812383   -2.78111255962849
H        -3.21113752629088   -3.34958441671937   -3.20710032078517
H        -5.17529627281573    1.48597760661468    1.34431366865283
C         0.23589999999931   -1.68140000000339    2.96030000000087
N        -1.01516111426497   -2.09613943807034    3.35551781836350
C         1.02835225387942   -1.57672116799843    4.07417637801687
C        -1.06051559123039   -2.20705715139230    4.71550834340160
H        -1.78584968976180   -2.27751000482702    2.73635026955521
C         0.23003118804738   -1.88042346437377    5.20960116670708
H         2.06708646406567   -1.31383640804489    4.07334131301915
C        -2.09937525276089   -2.56362872764951    5.56306342093408
C         0.46198769097777   -1.92368127080440    6.58517574998756
C        -1.83907350975901   -2.59600138397632    6.91878796517518
H        -3.07870374977613   -2.80919390611626    5.17629734983990
C        -0.57366435387817   -2.28074673320098    7.42089475598264
H         1.43728101023125   -1.68118038126546    6.98246188329586
H        -2.62551997984045   -2.87161224996586    7.60702747751552
H        -0.41140706604592   -2.31991547593551    8.48916225170569
