97
 energy: -137.731810635445 gnorm: 0.000329845649 xtb: 6.4.1 (1a32961)
N        -0.91517418563051   -1.99956624724426   -0.39037830326594
C        -2.14203689684564   -1.47761028839919   -0.60019732745197
C        -2.99642625038151   -2.01722421870549   -1.57074504991757
C        -2.58387428852655   -3.08901791333675   -2.32989746826532
C        -1.31273171015164   -3.61569779396312   -2.10398760125321
C        -0.52883754386707   -3.03694249477787   -1.12947301808725
H         0.45942495644542   -3.41837424136291   -0.91242084679166
H        -0.94975261724924   -4.45627934800049   -2.67310556575030
H        -3.97703711647633   -1.59941460739080   -1.73022121678349
C        -2.50450268690257   -0.34470818581574    0.23647757005372
N        -1.57322598208917    0.06387868428676    1.12862183945887
C        -1.87035292252801    1.08104721823697    1.93598777799354
C        -3.07074011862741    1.75875748255814    1.90010098852485
C        -4.03034189672640    1.36655827766794    0.96812273037213
C        -3.74014949977007    0.30773538784806    0.13636139643175
H        -4.47037212094548   -0.01261738688702   -0.58846399840107
H        -3.25796816470570    2.57259932099262    2.58203618453068
H        -1.09222274224885    1.35899952258625    2.62959754304341
Ir        0.42149999999998   -0.81650000000007    0.91329999999996
H         0.87260000000001   -2.23029999999998    1.54049999999998
B         0.45575895341939    0.58268765829826   -0.63821340538118
O        -0.14180872142937    0.24928099909461   -1.84231050878833
C        -0.19447219705285    1.38956045202461   -2.70262986619959
C         0.13163456373955    0.96538656026725   -4.13303112113836
H         1.06152149336257    0.40715539165914   -4.16423441986742
H         0.20541897796256    1.83828056637317   -4.77674562041537
H        -0.66292070043058    0.32158805055237   -4.50323516587623
C        -1.63284552314343    1.92549940386719   -2.65246594083351
H        -1.75875642261255    2.77707892869461   -3.31461675282112
H        -2.30995929992678    1.13175954666678   -2.96261683486421
H        -1.89093916235909    2.20934490930346   -1.63409504190472
C         0.84110642267257    2.36154352326475   -2.04609023481702
O         0.90881879046130    1.88221434958923   -0.69710707221851
C         2.24657981658750    2.20942097829800   -2.64142659627508
H         2.56290522903995    1.17407973153242   -2.54040596805597
H         2.27441628800751    2.52036792290339   -3.68192598032804
H         2.93754845609886    2.82470027465038   -2.06969962671888
C         0.44008266829136    3.83572110101900   -2.05719799544586
H        -0.46744187121773    4.00236488828159   -1.48522239006564
H         1.23609341133435    4.42433433107891   -1.60720611945420
H         0.29158408601900    4.17265891038057   -3.08010263590604
B         1.58051628515398    0.64387868837412    1.85844510612352
O         2.95488489629522    0.72070277881123    1.92800567404954
C         3.35201492347608    2.02017851198378    2.38350766718654
C         4.55886393543613    1.89982030160854    3.31314611246867
H         4.36503658635232    1.19677258276075    4.11634961268837
H         5.41160138164002    1.53690009671821    2.74472390119256
H         4.80606465283665    2.87214078369582    3.73112719699830
C         3.74468405766240    2.81807849066573    1.13402044833733
H         4.05080933480489    3.82993319485841    1.38321674254947
H         4.57068837054627    2.30903189088727    0.64244206094171
H         2.90308025099384    2.82858182274058    0.44634401912501
C         2.04674840006369    2.56215192511485    3.05985810112276
O         1.02633262223224    1.74314966994987    2.47751862484562
C         1.73846710983243    4.03078829249899    2.77141566968800
H         1.56123394830467    4.17988473978115    1.71159765798940
H         0.83928651575270    4.31915786060939    3.31023125605063
H         2.56131485105087    4.66015076851527    3.09978175808336
C         2.01076004699142    2.32509823699985    4.57552717612905
H         2.16786380567107    1.27148129428409    4.78968214048651
H         2.75992028958754    2.92510788917577    5.08316603160119
H         1.02673831685384    2.59935751244482    4.94852469183928
B         2.27819999999981   -1.33089999999867    0.17410000000019
O         3.05182515853998   -2.37530926416099    0.64452074281889
C         4.35350802297160   -2.33928445684571    0.05034425467348
C         5.28556702853040   -1.69541356824865    1.08299235134469
H         4.88465173661451   -0.72408571130187    1.35939851787656
H         5.29337322385200   -2.31874316010160    1.97366126756670
H         6.29912340935022   -1.60224063642166    0.70501885075462
C         4.82447822295990   -3.76406980471612   -0.24039900119998
H         4.92942135420278   -4.29586528085023    0.70155981714902
H         5.78711668305022   -3.74406487867091   -0.74386721491259
H         4.10677231274408   -4.30116254516951   -0.85146433231036
C         4.12855590597598   -1.44044473763006   -1.21447921600888
O         2.91548886812076   -0.74267970219651   -0.89801701885877
C         5.24062507258414   -0.42886354963445   -1.48585480182416
H         6.19038960771122   -0.93986992863475   -1.61867540017083
H         5.00890211313182    0.12412753363493   -2.39283503328735
H         5.31483153838463    0.27880438073980   -0.66755806071848
C         3.86519312516763   -2.25132674031997   -2.49127603212422
H         3.05028408330277   -2.95151047605202   -2.32826948171175
H         3.56542771273624   -1.56756346092639   -3.28229220772073
H         4.75611812246257   -2.78658756615403   -2.80571617456678
H        -3.23151726807322   -3.51204322086570   -3.08300713552930
H        -4.97929043384390    1.87723195063390    0.89979119335436
C         0.23590000000047   -1.68140000000063    2.96030000000035
C        -0.94247845041454   -2.12651664424279    3.52062022666925
C         1.13054758475865   -1.45157233663292    4.03933759853492
N        -0.79710050873465   -2.11596063663366    4.88132672213913
C        -2.22162658226133   -2.58912269746373    2.91054221008231
C         0.46182673594877   -1.70824084118882    5.20240357465852
H         2.15045103858549   -1.13912087530521    3.93812890400402
H        -1.51192277197221   -2.37584510557274    5.54003115923204
H        -2.57553630543497   -3.49501771207804    3.40299587538748
H        -2.06890525430069   -2.80408394985370    1.85756405344936
H        -3.00104091844247   -1.82913794177618    2.99695476091758
H         0.78094136114322   -1.63808757073080    6.22436332862602
