129
 energy: -190.346741057569 gnorm: 0.002720289131 xtb: 6.4.1 (1a32961)
N        -0.96510000000062   -2.11530000000113   -0.24089999999974
C        -2.24700000000038   -1.69840000000035   -0.36220000000104
C        -3.14039999999880   -2.36819999999998   -1.21200000000028
C        -2.70219999999909   -3.47559999999624   -1.93050000000093
C        -1.37780000000071   -3.89879999999583   -1.78760000000114
C        -0.54290000000030   -3.18670000000198   -0.93509999999702
H         0.49809999999999   -3.45629999999976   -0.78940000000027
H        -0.99570000000026   -4.76030000000100   -2.32769999999948
H        -4.16499999999979   -2.02889999999975   -1.31830000000002
C        -2.62130000000051   -0.50950000000034    0.44100000000069
N        -1.62600000000036    0.07330000000033    1.16019999999940
C        -1.89679999999968    1.15239999999840    1.91689999999936
C        -3.17229999999949    1.70330000000034    1.99649999999941
C        -4.20509999999909    1.11740000000111    1.26270000000142
C        -3.92609999999993    0.00250000000014    0.47820000000133
H        -4.71959999999951   -0.46420000000048   -0.09520000000026
H        -3.34630000000002    2.57510000000115    2.62070000000002
H        -1.04450000000012    1.57419999999989    2.43690000000012
Ir        0.42150000000012   -0.81649999999997    0.91329999999965
H         0.87260000000003   -2.23030000000007    1.54049999999996
B         0.50669999999898    0.41559999999721   -0.81540000000230
O         0.19500000000040   -0.04699999999799   -2.09150000000133
C         0.00650000000117    1.10039999999962   -2.95429999999862
C         0.49020000000121    0.74739999999979   -4.35779999999971
H         1.51610000000026    0.37380000000000   -4.33699999999987
H         0.44730000000029    1.62239999999815   -5.01670000000157
H        -0.14740000000046   -0.03390000000247   -4.78430000000000
C        -1.50120000000038    1.39559999999753   -2.96670000000069
H        -1.75369999999970    2.21459999999619   -3.64849999999967
H        -2.03199999999974    0.49449999999952   -3.28930000000042
H        -1.85169999999989    1.65210000000103   -1.96220000000218
C         0.84230000000038    2.20670000000080   -2.22039999999810
O         0.75199999999980    1.78259999999939   -0.83689999999817
C         2.32930000000007    2.18619999999994   -2.59900000000091
H         2.74130000000061    1.18499999999953   -2.45750000000069
H         2.48869999999972    2.51300000000048   -3.63179999999911
H         2.87199999999927    2.86270000000087   -1.93200000000111
C         0.28440000000060    3.62289999999820   -2.33659999999284
H        -0.72649999999985    3.69040000000078   -1.92910000000010
H         0.92130000000089    4.31479999999935   -1.77609999999736
H         0.26430000000010    3.94809999999874   -3.38319999999454
B         1.56299999999999    0.60960000000205    1.84840000000015
O         2.92780000000015    0.55229999999993    2.15020000000120
C         3.36329999999916    1.88659999999978    2.50260000000112
C         4.53140000000003    1.78589999999967    3.47740000000006
H         4.27909999999994    1.16090000000028    4.33689999999992
H         5.39389999999975    1.33790000000011    2.97339999999992
H         4.82390000000007    2.77870000000024    3.83819999999985
C         3.79700000000019    2.56849999999998    1.19670000000096
H         4.20019999999951    3.57090000000022    1.37679999999944
H         4.56740000000006    1.95560000000003    0.72110000000012
H         2.95240000000035    2.63260000000001    0.50540000000026
C         2.05040000000008    2.50089999999980    3.09320000000012
O         1.03749999999994    1.81620000000082    2.31909999999931
C         1.89099999999986    4.00450000000014    2.88649999999994
H         1.87289999999984    4.25440000000002    1.82409999999934
H         0.94939999999958    4.34260000000020    3.33169999999984
H         2.71080000000009    4.55149999999989    3.36630000000037
C         1.82470000000001    2.13199999999991    4.56519999999883
H         1.92609999999984    1.05329999999965    4.71319999999993
H         2.52609999999963    2.65279999999980    5.22539999999969
H         0.80629999999951    2.41580000000004    4.84899999999970
B         2.27819999999993   -1.33089999999985    0.17410000000006
O         2.89459999999966   -2.57740000000009    0.38450000000003
C         4.26930000000034   -2.48200000000097   -0.07210000000022
C         5.10899999999975   -2.05379999999976    1.14009999999958
H         4.76349999999991   -1.08739999999960    1.51749999999999
H         4.98049999999984   -2.79469999999935    1.93590000000054
H         6.17419999999987   -1.99289999999994    0.89300000000012
C         4.71950000000041   -3.84659999999887   -0.58470000000610
H         4.75279999999968   -4.56130000000043    0.24420000000109
H         5.72330000000023   -3.78370000000026   -1.02010000000017
H         4.03500000000139   -4.23599999999979   -1.34169999999862
C         4.16439999999982   -1.36220000000475   -1.16299999999950
O         3.08520000000003   -0.55030000000381   -0.65399999999986
C         5.40720000000081   -0.48869999999475   -1.31550000000410
H         6.27319999999956   -1.09009999999977   -1.61530000000021
H         5.23300000000046    0.26929999999957   -2.08590000000132
H         5.64270000000003    0.02649999999869   -0.38239999999799
C         3.71800000000139   -1.89830000000213   -2.53110000000130
H         2.82530000000053   -2.52159999999875   -2.42739999999993
H         3.46089999999995   -1.05250000000305   -3.17550000000220
H         4.50569999999928   -2.48289999999854   -3.01789999999981
H        -3.38499999999971   -4.00129999999882   -2.59310000000170
H        -5.21400000000001    1.52080000000008    1.29959999999951
C         0.23590000000042   -1.68140000000134    2.96029999999983
N        -1.01241788910384   -1.71309610478706    3.54103705831987
C         1.15613496703380   -2.02166927154479    3.94180589814938
C        -0.91296824229444   -1.95934374396789    4.88694906942593
H        -1.87449584407323   -1.50293340724048    3.06571591573960
C         2.65098789598193   -2.12492628661058    3.90151356235613
C         0.44980258042140   -2.16661106821919    5.17309352606600
C        -1.87343449269475   -1.98973436385579    5.89468336521425
C         3.28273083051727   -3.47502299486108    3.52791833677210
H         3.04039121151102   -1.83206734722853    4.88123620986655
H         3.02819189965303   -1.41439897757898    3.16089285724376
C         0.86111454914669   -2.42079166848975    6.48678320806451
C        -1.44303627511911   -2.23378838352474    7.19026683700581
H        -2.92059212060773   -1.82153709626651    5.68382942235796
N         2.85882060541000   -4.69144715883365    4.22488520208807
C         4.78743865676174   -3.40254496395695    3.81968232076019
H         3.09241508272343   -3.66423633477396    2.46554574214285
C        -0.09575165396733   -2.44650181293001    7.48371855726629
H         1.90568692496732   -2.57745282197581    6.71892906059196
H        -2.16452286795972   -2.25452667462868    7.99767213772651
C         3.07411306353410   -5.83248275142434    3.48827335600586
H         3.19912587189217   -4.75297810473131    5.17705327170480
O         5.32788144152648   -2.57882353729031    4.52099415415526
O         5.44953606615830   -4.44821505061203    3.28213079331431
H         0.20377189136575   -2.62791900492264    8.50938745280397
O         2.62802485138345   -5.99357132153459    2.37381611304726
O         3.82704427839719   -6.72278351927760    4.15830637272736
C         6.87288318369836   -4.47110464132828    3.40759287291711
C         4.34331604275038   -7.91934954789133    3.50486330328883
H         7.26595925998141   -4.81895731858573    2.45139518550326
H         7.15873334305718   -5.15528466094813    4.20934136863099
H         7.24203301714807   -3.46805796263763    3.63131897314778
C         4.92571805297700   -7.61424183972117    2.12088381049020
C         5.46986581687362   -8.39280003682181    4.43265743078928
C         3.23008928180868   -8.96600911852004    3.40834461045346
H         5.57177913210214   -6.73805578531472    2.17446099333652
H         4.13654848998187   -7.41582490639954    1.39770666558420
H         5.51123238870093   -8.46902060572901    1.78474390989402
H         6.28143509221145   -7.66546750287412    4.43067925999692
H         5.85352979238191   -9.35163340314614    4.08475437153504
H         5.10011970934963   -8.50161767929014    5.45206294782430
H         2.40491254701035   -8.56967618819296    2.81881838341303
H         2.86525545896774   -9.21977145372723    4.40396088191975
H         3.61202739147674   -9.86433358278017    2.92569446202160
