129
 energy: -190.388982762026 gnorm: 0.000442988154 xtb: 6.4.1 (1a32961)
N        -0.96038697300080   -2.07645101487251   -0.35729801308765
C        -2.22003137985699   -1.61716941671256   -0.46373241409134
C        -3.07967329814602   -2.08874317862350   -1.46171460167308
C        -2.63540205624040   -3.04827246413980   -2.34652161161045
C        -1.33375359880945   -3.52158670283938   -2.21742193536204
C        -0.54102025276647   -3.00033295418843   -1.21368609934633
H         0.48059743337497   -3.32464230451648   -1.08391869268833
H        -0.94638552247177   -4.27321716252728   -2.88567821887171
H        -4.07910372694996   -1.69660905447814   -1.55786206730222
C        -2.61980118853560   -0.59383552326045    0.49868822490594
N        -1.63932857549214   -0.06756878921587    1.26060366855821
C        -1.95029200369933    0.87672384996512    2.14591153320355
C        -3.23473698708074    1.34760457009599    2.33257013687608
C        -4.26100536774353    0.80509081499758    1.56399272252729
C        -3.94690336731226   -0.17146479499260    0.64244387687066
H        -4.72873081193313   -0.61457420374536    0.04808550315969
H        -3.43276905074625    2.11026817825320    3.06786407445491
H        -1.12019727870516    1.25663633159368    2.72273615912196
Ir        0.42150000000023   -0.81650000000020    0.91329999999886
H         0.87260000000010   -2.23030000000009    1.54050000000009
B         0.23379248012649    0.60883825825869   -0.60849209537642
O        -0.54236188434963    0.33490019915504   -1.72536841517141
C        -0.86318010668786    1.54831183738156   -2.41235050711364
C        -0.82753641043144    1.31804254995375   -3.92104462374687
H         0.10693953163156    0.85640202550766   -4.22214477458032
H        -0.95448912038271    2.26175483609625   -4.44535310845011
H        -1.63968524850212    0.64978727648075   -4.19755927923184
C        -2.29070527566501    1.93617551309051   -1.99824321050748
H        -2.62319884013055    2.82739432171809   -2.52211833678406
H        -2.95878515574192    1.11204188402181   -2.24069675702818
H        -2.33692071386831    2.10379165994642   -0.92401222881128
C         0.21118711190160    2.54254174495781   -1.86414014521314
O         0.57447367819036    1.94408215177270   -0.61414220932730
C         1.47676959971726    2.57528687856770   -2.73013449245226
H         1.84012291263598    1.56152292046069   -2.88171501589802
H         1.28751482024454    3.05276292956455   -3.68733087570003
H         2.24642757685331    3.13100945451767   -2.19945011329038
C        -0.28299436702004    3.96988933829138   -1.63490333475705
H        -1.05508918735524    4.00160882509880   -0.87208418593512
H         0.54869239481863    4.58594335519084   -1.30107012812767
H        -0.67270501320358    4.38281812373712   -2.56181318602170
B         1.50898297316070    0.75656521467348    1.76509236204899
O         2.70653111916181    1.27249463859006    1.37172447490539
C         3.03602510891491    2.45874454889982    2.10187972981315
C         4.39839586329547    2.24922688309418    2.77149152691449
H         4.42301715297194    1.31781486461502    3.32957174948956
H         5.15828750338357    2.18474533602637    1.99710353685073
H         4.63920782158042    3.07991171362641    3.42780801403422
C         3.15713037111900    3.59754263963888    1.08322661246540
H         3.34910061804440    4.54678412613240    1.57415850843887
H         3.98348683759489    3.37315255995950    0.41332590962962
H         2.25069471476058    3.65470111832332    0.48941839999074
C         1.82935237838649    2.62040771525146    3.10553173642846
O         0.98513786828710    1.50401791933581    2.79583330474540
C         0.99655677269867    3.89032255772119    2.89579420930164
H         0.58342357564157    3.90663006959017    1.89202631930186
H         0.17187699811848    3.88545637951415    3.60471992672923
H         1.59483926571575    4.78057309056833    3.06291953856156
C         2.21618404232211    2.53190240743921    4.58506960822355
H         2.78598459704243    1.63206534879676    4.78831169896092
H         2.79493643670271    3.40270631463051    4.87878447569371
H         1.30649861441846    2.49592164307261    5.17941329901507
B         2.27820000000694   -1.33090000000097    0.17410000000162
O         3.49296834580968   -1.41858461829457    0.80288195952215
C         4.53215250810107   -1.65324430303380   -0.15453490877609
C         5.20724821182260   -0.30197972344175   -0.41085099942089
H         4.46334367610330    0.41281688813720   -0.75234891799392
H         5.60397021282141    0.06094173035429    0.53363655148667
H         6.01444261766307   -0.39107379330725   -1.13187033324483
C         5.54783396921966   -2.63116469451720    0.43207260005071
H         6.06274125798871   -2.14357831048537    1.25615074529464
H         6.27730906387304   -2.91580981525711   -0.32111103584981
H         5.05055854438622   -3.51595518323404    0.81751555755647
C         3.73930621944782   -2.18778729406027   -1.39442321233428
O         2.41260630007852   -1.69776347089007   -1.15186512301897
C         4.22796702187935   -1.67512525202821   -2.74767863737264
H         5.26487334150083   -1.95924182749716   -2.90452551826227
H         3.61858161354996   -2.11541484425944   -3.53304035407212
H         4.13341710860235   -0.59593395225877   -2.80826452544712
C         3.65746688734412   -3.71950825262034   -1.42884966347272
H         3.31526200423483   -4.09549449336312   -0.46775706562444
H         2.93923450080919   -4.01231222058804   -2.19142393658468
H         4.62238779341382   -4.15529633309370   -1.66921128880225
H        -3.28460590074159   -3.41780311457714   -3.12601052540334
H        -5.28082062168305    1.13641101738657    1.68735657562449
C         0.23589999999472   -1.68139999999606    2.96029999998696
N        -1.02211988695014   -2.14335214539299    3.28471130838758
C         1.00838098757625   -1.70191021790048    4.10107424260833
C        -1.10332636347784   -2.40129315835824    4.62051290894293
H        -1.77501548583914   -2.25924932458004    2.62900377877896
C         2.45603368309801   -1.36735855558258    4.23495024650865
C         0.17364823224636   -2.13033338911919    5.17602361940465
C        -2.16178307828145   -2.84987161343073    5.39797321629695
C         3.36457047489842   -2.45823176080728    3.64173275123061
H         2.70066725029411   -1.22239393197271    5.28884036070321
H         2.67533828645116   -0.45301170328209    3.68686076240862
C         0.37034396261957   -2.32659251287318    6.54431363792732
C        -1.93434097446646   -3.03627993807326    6.74678576476780
H        -3.13029166652241   -3.05121010710857    4.96221959262717
N         2.97491258105103   -3.79123182651988    4.02627505915349
C         4.82151681717629   -2.17486199618307    3.96768323781175
H         3.28746842898512   -2.39844778006739    2.54650722286098
C        -0.68204887092928   -2.77731190942604    7.31034543330160
H         1.33055253682398   -2.12692104309759    6.99793486682398
H        -2.73507367961606   -3.38960186193941    7.38070873602019
C         2.88259976304193   -4.80817157422239    3.14927399446984
H         2.84502714790188   -3.99924553495051    5.00409882080825
O         5.28747193541304   -1.06870309206126    4.10194456291808
O         5.52675381139300   -3.29827614651109    4.07934329512305
H        -0.54303211020603   -2.93563405901636    8.37077697064551
O         3.02727341650956   -4.69718667442562    1.94828004944539
O         2.60071759533368   -5.94783322904419    3.80387464486089
C         6.93183402453166   -3.20212546532798    4.32300441348951
C         2.47035791143739   -7.21464777230381    3.10161482088587
H         7.45934077759901   -3.51447104682691    3.42158109878702
H         7.16534246608948   -3.87412555349134    5.14694807690867
H         7.19589320676347   -2.17406105799163    4.57551140898175
C         3.77427705953566   -7.56378144533296    2.38331537380280
C         2.18967944870021   -8.22273192248384    4.21765763212981
C         1.29980390554705   -7.16153537801947    2.11993845005219
H         4.60236497714353   -7.55748226993054    3.08835605229226
H         3.97682382304236   -6.83967907100392    1.59913495178818
H         3.69219201166991   -8.55189335084373    1.94017957914160
H         3.01533283972452   -8.23385204555682    4.92379198696624
H         2.06684433064392   -9.21524227824446    3.79591375512116
H         1.28415219050673   -7.94378440214850    4.74928408862193
H         1.49507404163704   -6.42467088883533    1.34580210164609
H         0.38642443599778   -6.88794317466300    2.64316322124777
H         1.16745959016072   -8.13532336921537    1.65754194254468
