111
 energy: -157.908896771051 gnorm: 0.000721914787 xtb: 6.4.0 (f63f532)
N        -0.96510000000002   -2.11530000000000   -0.24089999999999
C        -2.24699999999977   -1.69840000000002   -0.36219999999994
C        -3.14040000000006   -2.36820000000000   -1.21199999999998
C        -2.70220000000003   -3.47560000000001   -1.93049999999999
C        -1.37779999999998   -3.89879999999999   -1.78760000000001
C        -0.54290000000000   -3.18669999999998   -0.93509999999999
H         0.49809999999999   -3.45630000000000   -0.78940000000000
H        -0.99570000000000   -4.76030000000000   -2.32770000000000
H        -4.16500000000002   -2.02890000000001   -1.31829999999999
C        -2.62130000000000   -0.50949999999997    0.44100000000002
N        -1.62600000000001    0.07330000000001    1.16020000000002
C        -1.89680000000014    1.15239999999999    1.91689999999999
C        -3.17230000000000    1.70329999999998    1.99650000000000
C        -4.20509999999998    1.11739999999999    1.26270000000001
C        -3.92610000000010    0.00249999999998    0.47820000000001
H        -4.71959999999999   -0.46420000000000   -0.09520000000001
H        -3.34630000000000    2.57510000000001    2.62069999999999
H        -1.04449999999996    1.57420000000000    2.43690000000000
Ir        0.42150000000000   -0.81650000000000    0.91330000000000
H         0.87260000000000   -2.23030000000000    1.54050000000000
B         0.50670000000000    0.41560000000000   -0.81539999999999
O         0.19499999999999   -0.04700000000001   -2.09150000000002
C         0.00649999999997    1.10040000000001   -2.95429999999999
C         0.49020000000001    0.74739999999997   -4.35780000000000
H         1.51610000000001    0.37380000000000   -4.33700000000000
H         0.44729999999999    1.62240000000000   -5.01670000000001
H        -0.14740000000000   -0.03390000000004   -4.78429999999999
C        -1.50120000000001    1.39559999999992   -2.96670000000004
H        -1.75370000000000    2.21460000000002   -3.64850000000000
H        -2.03200000000002    0.49449999999999   -3.28929999999999
H        -1.85170000000000    1.65210000000000   -1.96219999999999
C         0.84230000000000    2.20670000000000   -2.22040000000000
O         0.75200000000000    1.78259999999999   -0.83689999999998
C         2.32930000000002    2.18620000000000   -2.59900000000000
H         2.74130000000000    1.18499999999999   -2.45750000000000
H         2.48870000000000    2.51300000000000   -3.63180000000000
H         2.87200000000000    2.86270000000000   -1.93200000000000
C         0.28439999999994    3.62290000000001   -2.33659999999998
H        -0.72650000000002    3.69040000000000   -1.92910000000000
H         0.92130000000000    4.31480000000000   -1.77610000000000
H         0.26429999999999    3.94810000000000   -3.38319999999999
B         1.56300000000001    0.60960000000000    1.84840000000000
O         2.92779999999999    0.55230000000000    2.15020000000000
C         3.36330000000000    1.88660000000000    2.50260000000000
C         4.53139999999999    1.78590000000002    3.47740000000000
H         4.27910000000000    1.16090000000001    4.33690000000000
H         5.39390000000001    1.33790000000000    2.97339999999999
H         4.82390000000000    2.77870000000000    3.83820000000000
C         3.79700000000000    2.56850000000000    1.19669999999998
H         4.20020000000000    3.57090000000000    1.37679999999999
H         4.56740000000000    1.95560000000000    0.72110000000000
H         2.95240000000000    2.63260000000000    0.50540000000000
C         2.05039999999998    2.50090000000001    3.09320000000001
O         1.03750000000000    1.81620000000000    2.31910000000000
C         1.89100000000002    4.00450000000000    2.88649999999999
H         1.87290000000001    4.25440000000000    1.82410000000002
H         0.94939999999999    4.34260000000001    3.33170000000000
H         2.71080000000003    4.55150000000000    3.36629999999999
C         1.82470000000003    2.13200000000000    4.56520000000000
H         1.92610000000001    1.05329999999999    4.71320000000000
H         2.52610000000001    2.65280000000001    5.22540000000000
H         0.80630000000001    2.41580000000001    4.84900000000000
B         2.27820000000000   -1.33089999999999    0.17409999999999
O         2.89460000000001   -2.57740000000000    0.38450000000000
C         4.26929999999999   -2.48200000000000   -0.07210000000005
C         5.10900000000000   -2.05380000000001    1.14010000000000
H         4.76350000000000   -1.08740000000001    1.51750000000000
H         4.98050000000000   -2.79469999999999    1.93590000000000
H         6.17420000000001   -1.99290000000000    0.89299999999999
C         4.71950000000000   -3.84660000000000   -0.58469999999996
H         4.75279999999999   -4.56130000000000    0.24420000000002
H         5.72329999999999   -3.78370000000001   -1.02010000000001
H         4.03499999999999   -4.23600000000001   -1.34169999999999
C         4.16440000000001   -1.36220000000000   -1.16299999999997
O         3.08520000000000   -0.55030000000000   -0.65400000000000
C         5.40719999999999   -0.48870000000000   -1.31550000000000
H         6.27319999999998   -1.09010000000000   -1.61530000000001
H         5.23300000000000    0.26930000000000   -2.08589999999999
H         5.64270000000000    0.02649999999998   -0.38240000000001
C         3.71800000000001   -1.89830000000000   -2.53109999999999
H         2.82530000000000   -2.52160000000001   -2.42739999999999
H         3.46089999999999   -1.05250000000000   -3.17550000000000
H         4.50569999999997   -2.48290000000003   -3.01790000000001
H        -3.38500000000003   -4.00130000000000   -2.59310000000000
H        -5.21400000000000    1.52080000000001    1.29960000000001
C         0.23590000000003   -1.68139999999999    2.96030000000002
C        -1.03891110028927   -1.98084301598798    3.43388123956049
C         1.28972238277159   -1.71669428474627    3.87336796716247
C        -1.25531589684269   -2.21382689341658    4.78571839561557
H        -1.88505398549020   -2.03846702047581    2.75961598540278
C         1.09886117853049   -1.99822322050568    5.22375612233193
H         2.29611475894201   -1.53933107217065    3.51400368311789
C        -0.19568282425268   -2.22981438063001    5.68126032779193
H        -2.26030180010896   -2.41300668451863    5.13963593148496
C         2.29742832588609   -2.15686653374175    6.12175362495413
H        -0.37243904785976   -2.44483091161489    6.72834732661265
C         2.91538062127387   -3.54067370144633    5.89657670211222
H         3.05325111887450   -1.40296697962726    5.88665878565406
H         2.01427466143366   -2.04739345475432    7.17245828316828
C         4.24712047345107   -3.73274656916062    6.56895269147990
H         2.22285507275213   -4.32004516487620    6.22874555246432
H         3.06491394288288   -3.67585979063308    4.81948921768347
N         5.01237261769790   -2.65312428202366    6.74585598721777
C         4.67570708789741   -5.00385296257375    6.94789723537213
C         6.21438171384565   -2.80663630663743    7.29446768994222
C         5.93031273754448   -5.15413102759329    7.51802069512484
H         4.03345688578716   -5.85991936874477    6.79261017077380
C         6.72316731346995   -4.02947740352161    7.69651133591016
H         6.78541946895577   -1.89241498494248    7.40844166496484
H         6.28424148915352   -6.13306989230448    7.81655986834536
H         7.70853365220495   -4.10122591935383    8.13475955338845
