111
 energy: -157.921983099484 gnorm: 0.000360499659 xtb: 6.4.0 (f63f532)
N        -0.91875646161951   -1.98291003867186   -0.40236014967287
C        -2.17957094962831   -1.52211159157869   -0.52503375396976
C        -3.07327447457788   -2.10642386502419   -1.43303557357290
C        -2.66162593980702   -3.15430720505310   -2.22552571534698
C        -1.35086107090968   -3.61057105248899   -2.09736471316091
C        -0.53220549787900   -2.99444819217128   -1.17549059008747
H         0.48938518379160   -3.31903643034503   -1.03704760250113
H        -0.98375078479156   -4.42674916402298   -2.69809391860878
H        -4.08417538711838   -1.74289848185322   -1.51799495310165
C        -2.54115923025024   -0.39935404999830    0.32763598066525
N        -1.58643070755589    0.04714089251108    1.17292409725909
C        -1.87810716262436    1.06227639663937    1.98414669053865
C        -3.10270395518635    1.69633701055574    2.00349119894955
C        -4.09122046799229    1.26145782999771    1.12306315236143
C        -3.80256515528006    0.20925012707905    0.28260078277125
H        -4.55386245712156   -0.13911517172075   -0.40675405203811
H        -3.28486187297684    2.50790136169196    2.68934313199887
H        -1.07723413209639    1.37306319971352    2.63701636307071
Ir        0.42149999999995   -0.81650000000005    0.91330000000007
H         0.87260000000005   -2.23030000000012    1.54049999999995
B         0.40397270366291    0.67276674444865   -0.55661409077236
O        -0.35593708550260    0.49882617069366   -1.70163531788288
C        -0.42778125818766    1.72697688800965   -2.43275998194720
C        -0.34566905862523    1.44493741372678   -3.93092917038572
H         0.51227261492911    0.82122693750656   -4.15934869608482
H        -0.27624015487236    2.37888078043465   -4.48293496179433
H        -1.24303912206767    0.91717591860765   -4.24525531930068
C        -1.78897071728574    2.36140040079069   -2.11103519660734
H        -1.93624838393083    3.28131699009697   -2.66922703615434
H        -2.57401715596119    1.65575194604817   -2.37650630922997
H        -1.86443434057597    2.56204022020622   -1.04401942348992
C         0.77043336815075    2.54195379932678   -1.84610219690399
O         0.95785236701743    1.93339381620410   -0.56199178282355
C         2.06969145055827    2.32287740853136   -2.63104064569419
H         2.28039048664471    1.25726610010525   -2.68177512490319
H         2.00859757282811    2.74869980167377   -3.62844317451941
H         2.88597182762570    2.79748382490480   -2.09134854843958
C         0.51684336392971    4.03942129146946   -1.68390768020763
H        -0.27975499601562    4.22819078287374   -0.97081224143471
H         1.42193968377512    4.51625070785268   -1.31498406839510
H         0.25650011494808    4.47899515761787   -2.64351766002549
B         1.57175729707576    0.63362469524511    1.88706920119739
O         2.93873160621188    0.76419856270652    1.88648346831212
C         3.32293158979184    2.01368450149396    2.47626983949557
C         4.55877293861758    1.81221801312166    3.35209914048197
H         4.39862186782326    1.02209143471898    4.07749079595404
H         5.39769710023047    1.52666431181458    2.72280006625053
H         4.80591636872973    2.73616697946305    3.86800484415736
C         3.66626578214953    2.95705387004775    1.31645798547551
H         3.93966586841576    3.94586816407749    1.67242236553118
H         4.50383197391095    2.53737807307575    0.76343003498945
H         2.81466190173729    3.01334188821082    0.64346857984523
C         2.02898371576877    2.44258779200672    3.25048068803198
O         1.00933582122868    1.64739733372192    2.63161287178052
C         1.66211776956312    3.92013169263779    3.11977480724214
H         1.45834664140214    4.17401095009206    2.08479653363004
H         0.76495076915668    4.11576064969768    3.70200262617077
H         2.46806845011502    4.54242196203831    3.49938393455095
C         2.05886714170637    2.05822632747845    4.73507017474732
H         2.25162245275388    0.99436542523043    4.83810750928738
H         2.81041997026745    2.62727182678532    5.27328741239670
H         1.08269595428421    2.26239539778935    5.16851030902826
B         2.27820000000075   -1.33089999999954    0.17409999999990
O         3.20319513778812   -2.15625932149847    0.77730997010832
C         4.42446827967384   -2.16864407716593    0.02807988435964
C         5.40043012036525   -1.23849117610776    0.75609733001611
H         4.93959122211634   -0.26099359807359    0.86277214068960
H         5.57528535839252   -1.63414321345349    1.75336987900167
H         6.34823807697300   -1.16457052629612    0.23171036616989
C         4.99634102220997   -3.58638165783119    0.00640388701712
H         5.27764861033253   -3.86658920013918    1.01794738764257
H         5.87809472735655   -3.62369295083284   -0.62727536372582
H         4.26321762913477   -4.30296665555813   -0.34871255982929
C         3.97807845712628   -1.61369555992048   -1.36994466691756
O         2.73665363167999   -0.95782238415439   -1.07160510607606
C         4.94086557470252   -0.60895524911237   -2.00015865850094
H         5.92055216544562   -1.05893867100060   -2.13549192429572
H         4.55610308670547   -0.30817137821080   -2.97156295843885
H         5.02484399393992    0.27666481733033   -1.37991388309307
C         3.67250260758490   -2.72058237319971   -2.38890683046849
H         2.97162341447826   -3.43594742640453   -1.96751421635761
H         3.20788159881803   -2.26984968584609   -3.26257188471236
H         4.58023731081825   -3.23200899553936   -2.69449871851874
H        -3.33985795004773   -3.61046547962939   -2.93070894502179
H        -5.06089963693950    1.73557229947723    1.09901129685312
C         0.23590000000151   -1.68139999999979    2.96030000000039
C        -1.04775210993490   -2.00885323735856    3.38614050388493
C         1.25077909891600   -1.63467857563497    3.91238662512891
C        -1.31693718706491   -2.17956576094980    4.73541790170115
H        -1.85419084968102   -2.13646345295434    2.67705582479299
C         1.00053201647671   -1.83801757467059    5.26356905459109
H         2.26275009617862   -1.45093823990566    3.58168677580619
C        -0.30307539214013   -2.09425200321589    5.67277499301881
H        -2.32662329141920   -2.40301299852043    5.05396212069970
C         2.14236345616890   -1.87246988573816    6.24074645946058
H        -0.52063782408214   -2.24745808057643    6.72074386836152
C         2.77769121475875   -3.26828714132194    6.24278454877307
H         2.90881068302445   -1.15041204753940    5.96101658643959
H         1.79665632138236   -1.63159804845601    7.24703099892155
C         4.02950907703964   -3.35784529401433    7.06816075652519
H         2.05598680623802   -4.00713147058607    6.59767708659560
H         3.03255273027950   -3.53242812876599    5.21175794741046
N         4.71541183274289   -2.24186677318999    7.27967522988628
C         4.46302921423441   -4.58892706063813    7.56284497936515
C         5.83869160105662   -2.30204028370786    7.97542283296162
C         5.63905808830933   -4.64718393215163    8.28785011440857
H         3.88356500656340   -5.48038664498883    7.37515296821825
C         6.35106466330025   -3.47533242106932    8.50314448833118
H         6.34751372404222   -1.35586153471520    8.11136295232999
H         5.99637957956549   -5.58848558972258    8.68057831029046
H         7.27279071892539   -3.47427478722355    9.06329285244575
