110
 energy: -159.070106596722 gnorm: 0.000233123836 xtb: 6.4.1 (1a32961)
N        -0.87799750490153   -1.93726883611805   -0.47059855451737
C        -2.10019634009966   -1.40826788887433   -0.67869933424620
C        -2.92574584444363   -1.88855691098098   -1.70346957334456
C        -2.49401322343284   -2.91671328614254   -2.51046641486794
C        -1.22923947196403   -3.45590750026431   -2.28188998342225
C        -0.47115434648787   -2.92978981068607   -1.25872021541054
H         0.51459608428001   -3.31866303880424   -1.04377549066773
H        -0.85049842355666   -4.26346254476832   -2.88731683470988
H        -3.89949952177144   -1.45753347617957   -1.86862094081372
C        -2.48801318003617   -0.31725790255300    0.20136933530393
N        -1.56623807559948    0.08552505297690    1.10283288477134
C        -1.87583144106915    1.08537647765323    1.92608474060337
C        -3.08718272971751    1.74323731402289    1.90636893989992
C        -4.04696189607180    1.34180958772758    0.98041469388362
C        -3.73979972947508    0.30524627129111    0.12770334764651
H        -4.47230926872396   -0.02476977139306   -0.58985191394685
H        -3.28360088060087    2.54427305638663    2.60078537568756
H        -1.09919748093476    1.36399845116047    2.62194694740586
Ir        0.42150000000003   -0.81650000000008    0.91329999999996
H         0.87259999999990   -2.23029999999988    1.54049999999996
B         0.46783978988356    0.64944816534405   -0.57498093199360
O        -0.16441954924214    0.40947752731466   -1.78186297853688
C        -0.20642079356829    1.60761285650914   -2.56228477807461
C         0.05503245870492    1.27268847511160   -4.02870196066938
H         0.96053620431558    0.68394986772240   -4.13164933974463
H         0.14269930048694    2.18538875621488   -4.61252782114851
H        -0.77668570626297    0.68701641481772   -4.41361521670550
C        -1.62099240408893    2.18838906577676   -2.42127989945854
H        -1.74168157687773    3.08031072985620   -3.02913325189193
H        -2.33881137663206    1.43746305324077   -2.74580744993793
H        -1.82828643158553    2.42248955596518   -1.37878515476394
C         0.88374759842557    2.49600116701438   -1.87884997516419
O         0.95764044733249    1.93605874716413   -0.56046586662717
C         2.26784986562013    2.31450728172401   -2.51359770934607
H         2.53094191084612    1.25976919105117   -2.49310671279327
H         2.29252656703046    2.69664971983011   -3.53010152391935
H         3.00001210778337    2.85155222386086   -1.91497421067263
C         0.54905852248365    3.98399909561690   -1.79885856220591
H        -0.33758674476733    4.15763811497696   -1.19699529723204
H         1.38075652751875    4.51136818200164   -1.33761030355187
H         0.39284232250189    4.38343239337457   -2.79784456530728
B         1.57293332950756    0.62129056006625    1.90547601883206
O         2.93686739070833    0.77546008849520    1.87763478308652
C         3.31815622256830    2.01306405453694    2.49129620716964
C         4.54719893558349    1.78915332597339    3.37201537917219
H         4.37237191852851    0.98617227550645    4.08014016139097
H         5.38889161703667    1.50969416982347    2.74343152826292
H         4.79747613183661    2.70176686600810    3.90610429950447
C         3.67475442835387    2.97315701580257    1.34946703760984
H         3.94909734053338    3.95545811077815    1.72237730989294
H         4.51498155145589    2.55771611261966    0.79732872711061
H         2.82954466076448    3.04325933851448    0.67003262283728
C         2.02193921228190    2.43401815874678    3.26869902034973
O         1.00841192718268    1.61554542922084    2.67278109565426
C         1.63097686265103    3.90387521263531    3.11286031715264
H         1.42149706304711    4.13618649283536    2.07406548196722
H         0.73120860433665    4.09494632986775    3.69263161523919
H         2.42663239332118    4.54617498370778    3.48038752250203
C         2.06448510746538    2.08210036542142    4.76101955642570
H         2.27714742565131    1.02467434264566    4.89065398866766
H         2.80784897766211    2.67669844519045    5.28284640210512
H         1.08662876447777    2.28196292323814    5.19286209979018
B         2.27820000000076   -1.33090000000015    0.17409999999936
O         3.14422753664728   -2.25281773474739    0.72732535036263
C         4.40346970477030   -2.23341880093333    0.04535758013236
C         5.36696080811579   -1.42618975921843    0.92257666463156
H         4.93341972647996   -0.44862405771661    1.11407884137949
H         5.47601493748166   -1.93754476690728    1.87600696781101
H         6.34433510636289   -1.33045144580425    0.45979612187320
C         4.92707908077927   -3.66238753707585   -0.09902094412006
H         5.12289773035368   -4.06407998153059    0.89161136258066
H         5.85098397513296   -3.66620595200565   -0.67068798561642
H         4.19845058580327   -4.30414770262588   -0.58282674244950
C         4.05346075110301   -1.51310507498592   -1.30328201358023
O         2.81597147679065   -0.85081323381121   -1.00083547333718
C         5.08173165667404   -0.48024720852790   -1.76143641131868
H         6.05664332951937   -0.94534113936592   -1.87925298345285
H         4.77314430856649   -0.06784173535403   -2.71890707083843
H         5.14535389207845    0.33285853538451   -1.04652601753463
C         3.77523686531579   -2.48902631137821   -2.45484369869712
H         3.02423172069270   -3.21586802349841   -2.15794969948687
H         3.38209706552364   -1.92763143458465   -3.29913262067099
H         4.68261344555634   -3.00071579873730   -2.76107611140612
H        -3.12177213847199   -3.29595527785127   -3.30277922028860
H        -5.00980456848973    1.82773978516487    0.93192270432047
C         0.23589999999892   -1.68140000000045    2.96029999999994
C        -0.99147740068647   -1.81942782997779    3.57573849225814
C         1.20028567467083   -1.62807270741624    4.01699279203315
N        -0.83155483551986   -1.76402523964806    4.95113941052526
C        -2.32540308986712   -2.02436929319402    3.02806820109336
C         2.59523371506489   -1.59385548011315    4.03487497399079
C         0.49418026739112   -1.67402808805127    5.24556647653438
H        -1.57607699332077   -1.87899462089639    5.61778233739273
C        -3.42489923872617   -1.34368765221842    3.55407874215140
C        -2.53643298416625   -2.93509002351608    1.99309460619940
C         3.23908681385708   -1.58292466555529    5.25329779273569
H         3.13065665884598   -1.57745913976565    3.09994665076096
C         1.14918881828683   -1.65042548044731    6.47152496363741
C        -4.69089735200128   -1.54730032632206    3.03998937766275
H        -3.27711365964473   -0.62762803560953    4.34985701738982
C        -3.80496150118874   -3.13895766027291    1.48458403315513
H        -1.69548219283959   -3.48711974645444    1.60198674251542
C         2.52679964550908   -1.60147736587254    6.45796626595872
H         4.31939017949368   -1.56149054540726    5.29119027493791
H         0.59881948603482   -1.67870927151924    7.40093275569701
C        -4.88612461637881   -2.44282898473526    2.00089429135773
H        -5.53038663408180   -1.00295117982777    3.44858627281959
H        -3.95358440406788   -3.84763480504296    0.68223490861135
H         3.06940212414400   -1.58530982200156    7.39249514507887
H        -5.87656028123486   -2.60027760070598    1.59971313012372
