107
 energy: -165.327111462210 gnorm: 0.000579202021 xtb: 6.4.1 (1a32961)
N        -0.90689541265255   -2.03571101186601   -0.47927299097885
C        -2.13754856894255   -1.54450488383801   -0.69163621574393
C        -3.03812918789667   -2.19491824715495   -1.54282587946174
C        -2.65482035702354   -3.35265627624468   -2.18627244006397
C        -1.36989385078105   -3.83703502396896   -1.97211376965694
C        -0.54157345191818   -3.14331173074347   -1.11033242806209
H         0.46405209641866   -3.47876779486482   -0.90632813178444
H        -1.02785741189716   -4.73893699327013   -2.45292718684405
H        -4.03551981809397   -1.81218374016436   -1.68433501755879
C        -2.48980726257713   -0.32354831713540    0.02900819258396
N        -1.62489038106024    0.09311205293373    0.97415415411889
C        -1.93292887565952    1.17826589285838    1.68095631161981
C        -3.07996523568911    1.91951615769075    1.48313990289624
C        -3.96084172546357    1.52539396584422    0.48232228741339
C        -3.65886059119007    0.39412051878079   -0.24629111971501
H        -4.32298046817614    0.07611114945449   -1.03319083905944
H        -3.27995715564270    2.78469014057491    2.09412532284627
H        -1.21275495845532    1.45618310769246    2.43469447901339
Ir        0.42149999999991   -0.81649999999974    0.91329999999993
H         0.87260000000007   -2.23030000000012    1.54049999999986
B         0.47901521092397    0.50023658558812   -0.70008459121254
O         0.32468408530705    0.02891999844360   -1.99131509943624
C         0.05604617214855    1.11764004264508   -2.88450880398746
C         0.77732911659882    0.88760423745736   -4.21049806780591
H         1.83667865804807    0.71519810278091   -4.05511386296690
H         0.63918471413498    1.74576232544351   -4.86317953294976
H         0.35596425000080    0.00846691563587   -4.69256685905900
C        -1.45785487934479    1.13358411048190   -3.14019450256147
H        -1.72377124896240    1.89922659903788   -3.86295099327769
H        -1.75654305799400    0.16066106365896   -3.52551694123844
H        -1.99503479292465    1.30575551309369   -2.21002874939895
C         0.54150715195275    2.35596808785734   -2.06194695943499
O         0.47401630678001    1.87734967876472   -0.70883376635088
C         2.00674672292942    2.70479067366475   -2.34825684432186
H         2.62770958975521    1.83723286978083   -2.14039963755726
H         2.13766264890299    3.03044479149638   -3.37590810380879
H         2.31672026550474    3.50545718487175   -1.68232117228503
C        -0.31727666477469    3.60980247888686   -2.21157312295609
H        -1.32908184820581    3.44061934540108   -1.85651606360016
H         0.11847344630232    4.41121764189787   -1.62016645254488
H        -0.34525919108737    3.91772517472506   -3.25347396420392
B         1.45015493820350    0.73071566111285    1.88574605494566
O         2.68565962147778    1.25142553837678    1.65160304367114
C         2.86661412673163    2.49283885637717    2.34250562912590
C         4.22803347723708    2.48609079777640    3.03899635141168
H         4.30104938675649    1.66546388524939    3.74273252372955
H         4.99835633066068    2.35507789745902    2.28446764347369
H         4.39282983235385    3.42804785728997    3.55486848105154
C         2.86484820723236    3.59169318744159    1.27346739443510
H         2.95681566494542    4.57980280801128    1.71418778447286
H         3.70670274330556    3.41796742326953    0.60842907329493
H         1.95359390037073    3.51947285869870    0.68748037762431
C         1.62774637449632    2.55511068069775    3.31115697962063
O         0.80974375073812    1.46514936812643    2.86543131354076
C         0.80770457021913    3.84457348480977    3.21587154742013
H         0.41877177683418    3.97757558272532    2.21172068922244
H        -0.03431381545269    3.77667545797519    3.90075436785856
H         1.41426306405692    4.70208622895477    3.49243820794904
C         1.97519594429800    2.30452846107778    4.78277857637484
H         2.46856636275244    1.34459980952524    4.89656767930560
H         2.61083670550859    3.09440513880504    5.17082429631343
H         1.05375907519818    2.27585303835838    5.35945047779748
B         2.27819999999938   -1.33089999999988    0.17410000000009
O         2.38812791615560   -2.65443871088475   -0.23012832623773
C         3.66883167992107   -2.90951877878367   -0.81320621648892
C         4.48453001179510   -3.68867283260709    0.22528574694068
H         4.54301939349497   -3.11240583547501    1.14288403251748
H         3.96519484696283   -4.61812840945651    0.44632062573024
H         5.47899056908253   -3.91764486770268   -0.14452732605247
C         3.49286138634193   -3.77283029534784   -2.06303136770940
H         3.11898669414467   -4.74935268737166   -1.76516488628075
H         4.44547764367508   -3.90376835062598   -2.56848052088325
H         2.77530836755149   -3.32839004679164   -2.74462974532314
C         4.21149680574446   -1.46224096812978   -1.07269324885339
O         3.39811279614891   -0.64712499269577   -0.20994667511926
C         5.68967804013977   -1.26252526517426   -0.74720092585428
H         6.29501516661063   -1.91057369301840   -1.37543252581265
H         5.95818514554916   -0.22868862818640   -0.94506935096829
H         5.89466067602874   -1.47319769095003    0.29568089353109
C         3.94350989566430   -0.98357442717548   -2.50558924827960
H         2.87737181552709   -1.04249153851128   -2.71089251832837
H         4.25082192935252    0.05655345218932   -2.58551007476937
H         4.49895653744705   -1.57019776185552   -3.23104508190749
H        -3.34335261730267   -3.87027064280895   -2.83731744017906
H        -4.85979478004958    2.08717590030189    0.27809478993845
C         0.23589999999960   -1.68140000000074    2.96030000000396
C        -0.95262209156526   -1.99637949363036    3.60214257227347
C         1.36460792806430   -1.49270018613717    3.82245951725727
C        -1.10708869211863   -1.89323478959354    5.00625746954157
C        -2.17795096755100   -2.48539554085180    2.90202074023141
N         2.57478044016005   -1.41423384718887    3.24593046774497
C         1.22310894824431   -1.41261042392473    5.23284448903818
C        -0.05468430582569   -1.57189231015328    5.80751568575129
H        -2.08368383134229   -2.07126869578179    5.43260033144866
F        -2.84534575640070   -3.41153418149373    3.64115458507706
F        -3.11740936890487   -1.53320167770075    2.66130705955320
F        -1.96082075835393   -3.09585416566712    1.73007288366061
C         3.64688306400181   -1.20904117516270    3.96771532483624
C         2.38614570715619   -1.19205978456686    6.00017081003749
H        -0.17864865294961   -1.46718401693287    6.87434500972345
C         4.94537325043341   -1.12652861269331    3.23143645560989
C         3.59571822797749   -1.07532822472610    5.37304885215053
H         2.30141724367266   -1.12045136172708    7.07551684604078
H         4.74246101200398   -0.73465211520918    2.23804416598874
H         5.38292826598463   -2.12083234210608    3.14458503156464
H         5.65354713348546   -0.48986745777718    3.75531763466342
H         4.50196975080108   -0.89836420730486    5.93246270042181
