13
 energy: -19.608474300327 gnorm: 0.000523024345 xtb: 6.4.1 (1a32961)
C         1.05990933348558   -1.18128495961639    0.01498071956688
C         1.79661898593898   -0.00441950767646    0.00485103897031
C         1.05707297245748    1.16904603203735   -0.00356139322544
N        -0.26665395435245    1.16906920878711   -0.00247576880725
C        -0.88213170718569   -0.00865185273799    0.00747943656648
C        -2.37262740199461   -0.01180904470728    0.00965258152027
N        -0.26199781345998   -1.18578666541846    0.01647749971842
H         1.53380327788552   -2.15498290876534    0.02138326681569
H         2.87332389778079   -0.00310934450597    0.00325500550386
H         1.52728296501140    2.14447764978783   -0.01250144454696
H        -2.74037416667572    1.00899789073601    0.01161832453850
H        -2.73515071694918   -0.54299604530794    0.88690856088363
H        -2.73665567194210   -0.53894045261246   -0.86955782750439
