99
 energy: -148.656707714500 gnorm: 0.000329214172 xtb: 6.4.1 (1a32961)
N        -1.05013617382625   -2.03517193914864   -0.23963534705891
C        -2.29045017472896   -1.52474116861029   -0.32487623088116
C        -3.22182760732175   -2.04213489257929   -1.23187072263526
C        -2.87110584076115   -3.09964976140576   -2.04448201785422
C        -1.58833631783650   -3.62653651041705   -1.93486448755705
C        -0.72161020135598   -3.05643324137595   -1.02411735898537
H         0.28660456420957   -3.42774618851937   -0.90683173872862
H        -1.27160355170010   -4.45566083080806   -2.54614022957585
H        -4.20694870967419   -1.61336439210289   -1.31282871986586
C        -2.59148639431671   -0.40050639017895    0.55905210162004
N        -1.55977133452213    0.10995965698567    1.25780630045431
C        -1.77884777673820    1.14099002325666    2.06812308875535
C        -3.02109006306354    1.72090026970562    2.23981600679751
C        -4.09939351497331    1.20117345191239    1.53173278371160
C        -3.87862509267555    0.13410169008914    0.68581112783021
H        -4.70411685275174   -0.28846791137412    0.13797418993746
H        -3.14491477737131    2.55124919186719    2.91579583686874
H        -0.91014324537592    1.50499916037480    2.59637106399167
Ir        0.42150000000029   -0.81649999999962    0.91330000000063
H         0.87259999999983   -2.23029999999971    1.54049999999988
B         0.31128780104205    0.51153680790302   -0.67928483371228
O        -0.24636271923683    0.11606758026675   -1.88097340994639
C        -0.47436055852334    1.26043408319614   -2.71280106559368
C        -0.14688232763690    0.91663485787346   -4.16296355777955
H         0.84294033215811    0.47939763750198   -4.23794781816036
H        -0.20187728085697    1.80909879121879   -4.78092590296135
H        -0.86845281891899    0.19001018411713   -4.52826140898683
C        -1.96573459008216    1.60823762647003   -2.59732893483127
H        -2.22559066856144    2.44154345186337   -3.24326915883836
H        -2.54844410708652    0.73653700213832   -2.88818813679216
H        -2.21316829918250    1.85161168468574   -1.56584621569312
C         0.44894802450841    2.33858140727234   -2.05928596272216
O         0.56885511779438    1.86317632958092   -0.70986871100673
C         1.86083256505449    2.33170150734117   -2.65624791203816
H         2.27478155796002    1.32941129934537   -2.57405336726117
H         1.85559254865085    2.66365232101840   -3.69036024549168
H         2.48939390472478    2.99807048883045   -2.07130033418914
C        -0.10710009239251    3.76050331674600   -2.06828410592894
H        -1.02486722537866    3.82965372768739   -1.49282300049215
H         0.62397810722906    4.43100024756108   -1.62326967900029
H        -0.29593139461246    4.07780903608804   -3.09063578820723
B         1.67269232502126    0.65064222625983    1.74684255535429
O         2.92584541997636    1.04259386386031    1.37971324537479
C         3.29801156747748    2.26122687201986    2.03526253690922
C         4.71933223476427    2.11767794439664    2.58139495668920
H         4.80260991478222    1.21964030244858    3.18461907139112
H         5.41066861877971    2.02760909745811    1.74726705755583
H         4.99297378514505    2.98809191061610    3.17091933230738
C         3.27292895094005    3.35786424823244    0.96358098081964
H         3.50944009257808    4.33100088923036    1.38323014102464
H         4.00969762982832    3.10969226723754    0.20333669736368
H         2.29569197442994    3.37200679817529    0.48932817018978
C         2.18525109771476    2.43401418829629    3.13280251870804
O         1.19563115706910    1.46853129763576    2.74912229758845
C         1.52857344355641    3.81569843297523    3.16909949398742
H         1.03828746148469    4.03229416517252    2.22581504655839
H         0.77807389964505    3.82787881939852    3.95594704701081
H         2.26976755946697    4.58051839924355    3.38248053843910
C         2.65496830112553    2.07289099409021    4.54626265835829
H         3.07265351253134    1.07183505912805    4.54938729934814
H         3.39334969299137    2.78247684554065    4.90673808299745
H         1.79643155319878    2.08280417085193    5.21414398965905
B         2.27820000000039   -1.33090000000100    0.17410000000140
O         3.08986994050675   -2.33459653854973    0.65347226961651
C         4.36710417526126   -2.28059962456711    0.00257148042827
C         5.30824417005618   -1.53350734943463    0.95114218189860
H         4.89140816416769   -0.55181233040850    1.15462155574200
H         5.34186222478130   -2.07305723722090    1.89381675008910
H         6.31109500401361   -1.45450089349289    0.54251580420665
C         4.88691897464520   -3.69894778394505   -0.22733198046513
H         5.07541837439960   -4.16281348138023    0.73716834750394
H         5.81457133211410   -3.66815349124010   -0.79205507580653
H         4.15955253574798   -4.30509903247400   -0.75702036826833
C         4.05219070738637   -1.46774134301252   -1.29997830519629
O         2.83724938695068   -0.78316609863673   -0.95805318670735
C         5.11526659184007   -0.44331162023383   -1.69012399741656
H         6.07723799030691   -0.92976083482206   -1.82536322518866
H         4.82630168352378    0.03311805565487   -2.62351481228771
H         5.19250055717486    0.32277845043141   -0.92692120982622
C         3.74100017417133   -2.36222540423635   -2.50804319423194
H         2.97023694345196   -3.08298478414206   -2.24959664651572
H         3.35931573530033   -1.73770633578446   -3.31185733255462
H         4.63170043076913   -2.87948473417931   -2.85149806420677
H        -3.57748420883616   -3.50584341587684   -2.75233674601071
H        -5.08851473892763    1.61896712971200    1.64203383871919
C         0.23589999999109   -1.68139999999101    2.96029999999800
O        -1.06017370783920   -1.99794828480903    3.16077861352748
C         0.89775180174171   -1.77061987606160    4.17805260313223
C        -1.25379705916075   -2.24107619750952    4.48166255380262
C        -0.08937028167674   -2.11723786066131    5.15657258114215
C         2.30597722615956   -1.57842878892782    4.44238675468501
H        -2.25123747301703   -2.48031995829633    4.79310966977389
H         0.08240794509923   -2.25170547459455    6.20373906504109
O         3.14985003791241   -1.20778776420673    3.65280934702096
O         2.60161379491566   -1.86875349395010    5.73418923559750
C         3.95782511183472   -1.75872823247606    6.15097604470253
H         4.53300599649971   -1.20502855340948    5.40647762409599
H         4.37507463974160   -2.76068324366958    6.26532107554062
H         3.96384781635197   -1.23714824294869    7.10694101628010
