111
 energy: -158.900310809341 gnorm: 0.014745408667 xtb: 6.4.1 (1a32961)
N        -0.96510000000001   -2.11530000000001   -0.24089999999999
C        -2.24700000000000   -1.69839999999999   -0.36220000000000
C        -3.14039999999996   -2.36820000000002   -1.21200000000002
C        -2.70220000000001   -3.47560000000001   -1.93049999999998
C        -1.37779999999998   -3.89879999999998   -1.78760000000000
C        -0.54289999999997   -3.18669999999998   -0.93510000000002
H         0.49809999999999   -3.45630000000000   -0.78940000000000
H        -0.99570000000000   -4.76030000000000   -2.32770000000000
H        -4.16499999999999   -2.02890000000000   -1.31830000000000
C        -2.62129999999998   -0.50949999999999    0.44099999999999
N        -1.62600000000001    0.07330000000010    1.16020000000000
C        -1.89680000000005    1.15239999999996    1.91690000000000
C        -3.17229999999991    1.70329999999998    1.99650000000000
C        -4.20510000000001    1.11740000000003    1.26270000000003
C        -3.92609999999999    0.00249999999999    0.47820000000001
H        -4.71960000000000   -0.46420000000000   -0.09520000000001
H        -3.34630000000000    2.57510000000000    2.62070000000002
H        -1.04450000000000    1.57420000000000    2.43690000000000
Ir        0.42150000000000   -0.81650000000000    0.91330000000000
H         0.87260000000000   -2.23030000000000    1.54050000000000
B         0.50670000000000    0.41560000000000   -0.81540000000000
O         0.19500000000000   -0.04700000000001   -2.09150000000002
C         0.00650000000001    1.10040000000000   -2.95429999999999
C         0.49020000000009    0.74739999999999   -4.35780000000001
H         1.51609999999997    0.37380000000000   -4.33700000000000
H         0.44730000000000    1.62240000000000   -5.01670000000000
H        -0.14740000000002   -0.03389999999999   -4.78430000000001
C        -1.50120000000004    1.39560000000000   -2.96670000000001
H        -1.75370000000000    2.21460000000000   -3.64849999999998
H        -2.03199999999998    0.49449999999999   -3.28930000000000
H        -1.85169999999999    1.65210000000000   -1.96220000000001
C         0.84230000000002    2.20670000000000   -2.22039999999999
O         0.75200000000000    1.78260000000000   -0.83689999999999
C         2.32930000000000    2.18620000000000   -2.59899999999999
H         2.74129999999999    1.18499999999999   -2.45750000000000
H         2.48870000000000    2.51300000000000   -3.63180000000000
H         2.87199999999999    2.86269999999999   -1.93199999999999
C         0.28440000000004    3.62290000000000   -2.33660000000001
H        -0.72650000000000    3.69040000000000   -1.92910000000000
H         0.92130000000000    4.31480000000001   -1.77610000000000
H         0.26429999999999    3.94810000000000   -3.38319999999999
B         1.56299999999999    0.60960000000000    1.84840000000000
O         2.92780000000000    0.55230000000000    2.15020000000001
C         3.36330000000001    1.88660000000000    2.50259999999999
C         4.53139999999999    1.78590000000000    3.47740000000003
H         4.27910000000000    1.16090000000000    4.33689999999997
H         5.39389999999999    1.33790000000001    2.97340000000000
H         4.82390000000001    2.77870000000000    3.83820000000000
C         3.79700000000000    2.56850000000001    1.19669999999996
H         4.20020000000000    3.57090000000000    1.37680000000000
H         4.56739999999999    1.95560000000000    0.72110000000000
H         2.95240000000000    2.63260000000000    0.50539999999999
C         2.05040000000002    2.50090000000000    3.09320000000000
O         1.03749999999999    1.81620000000001    2.31910000000000
C         1.89099999999998    4.00450000000000    2.88650000000000
H         1.87290000000000    4.25440000000000    1.82410000000000
H         0.94939999999998    4.34260000000000    3.33170000000000
H         2.71079999999999    4.55149999999999    3.36630000000001
C         1.82469999999996    2.13200000000000    4.56520000000000
H         1.92610000000000    1.05330000000001    4.71320000000000
H         2.52609999999999    2.65280000000001    5.22540000000001
H         0.80629999999999    2.41579999999999    4.84900000000000
B         2.27819999999999   -1.33090000000000    0.17410000000001
O         2.89460000000000   -2.57740000000000    0.38450000000000
C         4.26929999999999   -2.48199999999999   -0.07209999999999
C         5.10899999999999   -2.05380000000000    1.14010000000003
H         4.76349999999999   -1.08740000000000    1.51750000000000
H         4.98050000000000   -2.79470000000002    1.93590000000001
H         6.17420000000000   -1.99289999999999    0.89300000000000
C         4.71949999999999   -3.84660000000001   -0.58469999999999
H         4.75280000000000   -4.56130000000000    0.24420000000003
H         5.72330000000000   -3.78370000000000   -1.02010000000002
H         4.03499999999999   -4.23599999999999   -1.34170000000002
C         4.16439999999999   -1.36220000000001   -1.16299999999999
O         3.08519999999999   -0.55029999999999   -0.65400000000000
C         5.40720000000002   -0.48870000000001   -1.31549999999997
H         6.27319999999999   -1.09010000000000   -1.61530000000001
H         5.23300000000000    0.26930000000001   -2.08590000000000
H         5.64270000000000    0.02650000000002   -0.38240000000002
C         3.71800000000000   -1.89830000000003   -2.53109999999999
H         2.82530000000000   -2.52159999999998   -2.42740000000001
H         3.46089999999999   -1.05250000000001   -3.17550000000000
H         4.50570000000001   -2.48289999999999   -3.01789999999999
H        -3.38500000000002   -4.00130000000006   -2.59310000000000
H        -5.21400000000000    1.52080000000000    1.29959999999998
C         0.23590000000002   -1.68139999999999    2.96029999999998
C        -0.98360755505893   -1.90569405612650    3.59822507499657
C         1.34520034091968   -1.87075443327025    3.90111060579532
C        -1.10399472798384   -2.11593259646542    4.97137814938930
H        -1.89916487904568   -1.91654361913687    3.01939990679300
C         2.83036392409955   -1.84158253541971    3.57073755795358
N         1.23009438327099   -2.06571891885517    5.21633766919405
C         0.02572162693111   -2.15578380315616    5.76537090290463
H        -2.07139571340791   -2.27066734021183    5.42864818661089
O         3.04281131199549   -1.58703097940269    2.40225384959445
N         3.97465520749824   -1.87046071635444    4.41832237223475
H         0.02280048808132   -2.29790540575339    6.84033870441195
C         4.49805766717587   -3.02369443552894    5.14958734105891
C         5.13087700873135   -1.13228431834366    3.87461760830714
C         5.53946081228145   -3.85516400944446    4.38506620811506
H         3.67139641742416   -3.66027526855037    5.45329187160736
H         4.99386205170946   -2.62813673104181    6.04319716718677
C         6.13161110195963   -0.48648039685260    4.83174016415833
H         4.70384603048911   -0.38584010191480    3.21546348250334
H         5.76072447249885   -1.76677079246246    3.25323768366032
H         5.16389146489507   -4.18588787252527    3.41614086377722
H         5.80201211316930   -4.73876848831366    4.96658896123482
H         6.47009731599457   -3.31038371970737    4.21514269702991
H         5.68752966768337    0.11039124669435    5.62509175194948
H         6.75853065114816    0.17351626751521    4.22602143687998
H         6.80279682826929   -1.22156314226773    5.27562613422329
