105
 energy: -150.782355309702 gnorm: 0.000260685379 xtb: 6.4.1 (1a32961)
N        -0.90453847131376   -2.05897934568174   -0.35187224538733
C        -2.17828421687653   -1.63912815563651   -0.47743803601250
C        -3.08111210604503   -2.31940296964198   -1.30648005173171
C        -2.66099908976399   -3.41677587920534   -2.02448472367843
C        -1.33471498504176   -3.82656970373502   -1.89977892590371
C        -0.50919053772483   -3.11921463088624   -1.05195731649131
H         0.52318438551478   -3.40800092509773   -0.91250595769696
H        -0.96117751003546   -4.67863072685519   -2.44413879167973
H        -4.10562317379128   -1.99449265155768   -1.38405617962685
C        -2.54409775578496   -0.45463420653290    0.28641558118560
N        -1.60478387876743    0.03927016654420    1.12334784705892
C        -1.89931361139542    1.12122336026723    1.84213464661629
C        -3.10964384104522    1.77893771891252    1.77012591047540
C        -4.08109323387766    1.29323726489815    0.89755040619198
C        -3.79043996921976    0.17076699258603    0.15381215527125
H        -4.52478534252192   -0.21459620344706   -0.53410380250231
H        -3.29389898314721    2.64816185010469    2.38068962167686
H        -1.11174747333812    1.46769780690723    2.49370735586520
Ir        0.42150000000001   -0.81649999999976    0.91329999999996
H         0.87259999999991   -2.23029999999980    1.54050000000011
B         0.38737979474913    0.63157799176248   -0.58926739864959
O        -0.28651854026957    0.36625995804606   -1.76940238622463
C        -0.39315393401833    1.56036321558409   -2.55173599765535
C        -0.18560817860594    1.23029082923130   -4.02772696922325
H         0.72915343515908    0.66443932000823   -4.16931457615709
H        -0.14499302017270    2.14531560026223   -4.61299018716584
H        -1.01766156955738    0.62487523599805   -4.37958496561266
C        -1.81469510004984    2.10531460626795   -2.34997690043122
H        -1.98644220345589    2.98902218128014   -2.95737915317621
H        -2.52736736998748    1.33402002458491   -2.63561001096473
H        -1.97878890483841    2.34290044039988   -1.30077226236414
C         0.70072606194141    2.48056359522941   -1.91812727767431
O         0.84318165806755    1.93034317168346   -0.60146757508480
C         2.06322823363890    2.33190137626398   -2.60610493757243
H         2.35221466810557    1.28365617414494   -2.59916018560481
H         2.04124245428509    2.71748906689999   -3.62142233039401
H         2.80416885534238    2.88342045919692   -2.03207332968947
C         0.33003148420124    3.95970867408882   -1.83090124284795
H        -0.52994546368536    4.11298185326863   -1.18641043209020
H         1.16840388972302    4.51279877155426   -1.41431265763593
H         0.11328274262413    4.34761597262759   -2.82305277223211
B         1.55767992244075    0.64306986370252    1.88066670276612
O         2.92511152544469    0.78520243046633    1.88864367645911
C         3.28842409963181    2.04541473166664    2.47034734285588
C         4.53490689827290    1.87604293815830    3.33741153069945
H         4.40022870592117    1.07899583706464    4.06107526374328
H         5.37883879706082    1.61859955322692    2.70248607279594
H         4.75773878139893    2.80512543266287    3.85523245254558
C         3.59783466733573    2.98919795698254    1.30159189532338
H         3.86557650315900    3.98255906625992    1.64910765161401
H         4.42871138456715    2.57658101841673    0.73365264331420
H         2.73295128172156    3.03194562998160    0.64440959460231
C         1.99307481257364    2.45107371553078    3.25289422923795
O         0.98290242699218    1.64605991619168    2.63053349835455
C         1.60541166973747    3.92439360660876    3.13266654652974
H         1.38489152225303    4.17902158574298    2.10138148115896
H         0.71358744296215    4.10669948908885    3.72734860098701
H         2.40830134844435    4.55549706510855    3.50399574648901
C         2.03454910606105    2.05970788129028    4.73567786041338
H         2.24326582820950    0.99820059767464    4.83824940223985
H         2.77901972205757    2.63945497638937    5.27253029867415
H         1.05693661184385    2.24931339450435    5.17299110675921
B         2.27819999999917   -1.33089999999898    0.17410000000004
O         3.12407035995212   -2.28542772630836    0.69779317784256
C         4.40112497771205   -2.22895526385758    0.04888773511232
C         5.34083793477681   -1.48233698043937    1.00166987861663
H         4.90318572511133   -0.51759077560515    1.24190049075407
H         5.41917630583325   -2.05257784265167    1.92390547900519
H         6.33111033946994   -1.36164417035149    0.57353834435221
C         4.92496817853258   -3.64799883000798   -0.17141618273720
H         5.08746350611275   -4.11459489679146    0.79653003830504
H         5.86697875795302   -3.61826516425896   -0.71183256282660
H         4.21099994725729   -4.25294764242625   -0.72028880623185
C         4.09012039331093   -1.42459611758020   -1.26273398810203
O         2.83808845813669   -0.79096808791846   -0.96096734887975
C         5.11967122937574   -0.35223179367836   -1.61559838077694
H         6.10151052804777   -0.79850062036085   -1.74679241898394
H         4.82603502372510    0.13110476683809   -2.54405443173240
H         5.15791441594803    0.40336777416992   -0.83871168368891
C         3.86118563255301   -2.32199120647281   -2.48677478435023
H         3.09871202172522   -3.06537154870484   -2.27095441347205
H         3.50322578311091   -1.70468371952790   -3.30730540666254
H         4.78092637758040   -2.81348502438990   -2.78900064322514
H        -3.34551659221835   -3.94786649195568   -2.66831115032136
H        -5.03796404682427    1.78411246103321    0.80341069725884
C         0.23589999999796   -1.68140000000085    2.96029999999909
C        -1.02436544933279   -2.08010229689672    3.38061332694412
C         1.24611691303401   -1.53390544213324    3.92750874771328
C        -1.24925230621242   -2.22868810389428    4.75127194421515
H        -1.82045624445840   -2.28452230323569    2.67606685723167
N         1.07873484977756   -1.66968861855814    5.23155141994801
H         2.25519207977710   -1.30595934683813    3.61229064285356
C        -0.14955046801028   -1.99753774636895    5.61787215787822
C        -2.34953320083118   -2.60695427371336    5.58176071739514
N        -0.56177105200718   -2.21490643525865    6.89367608281287
C        -1.88160519509472   -2.58361574955993    6.86581211483089
C        -3.73365360111513   -2.95739199686980    5.13248105370801
H         0.01667516518003   -2.13253814158035    7.71209866621155
H        -2.39969139029674   -2.80993829634278    7.77770929506588
C        -4.79386803768397   -2.05554856241048    5.76645316297529
H        -3.95076539947759   -3.99826114108728    5.39192912938038
H        -3.78337417315498   -2.86963522573815    4.04560956388442
H        -4.79438855917028   -2.17093989354459    6.84725387206336
H        -5.78219940911722   -2.31155754522638    5.39072280649621
H        -4.59285358100414   -1.01251971927185    5.53348252503937
