99
 energy: -139.594589685992 gnorm: 0.000287742094 xtb: 6.4.1 (1a32961)
N        -0.90596205164056   -1.93379107936632   -0.50702017798910
C        -2.10963441443036   -1.36348362649924   -0.71541638458686
C        -2.91164545746716   -1.75328218969152   -1.79473715984439
C        -2.47598333661637   -2.73810715890413   -2.65381407680317
C        -1.23277029779298   -3.32209786173056   -2.42302135944631
C        -0.49410270851762   -2.87965512038058   -1.34605904094834
H         0.47675219568679   -3.30232974242998   -1.12786167566691
H        -0.85327671026814   -4.09829205450535   -3.06763845929562
H        -3.86596051423391   -1.28335508709915   -1.96765276250008
C        -2.50619021259263   -0.33271119176722    0.23504575307145
N        -1.58952828096764    0.01711985948249    1.16446532545710
C        -1.91942602076865    0.93420101509699    2.07097728808219
C        -3.14462324794389    1.56755725440596    2.10544008133554
C        -4.09349817626040    1.23225843356758    1.14256895415188
C        -3.76770805503367    0.27422176174377    0.20687655048386
H        -4.49501306363240   -0.00949454773060   -0.53580503167803
H        -3.35833049086541    2.29938087813382    2.86764432976545
H        -1.15224302394284    1.16697813607038    2.79293580392381
Ir        0.42150000000029   -0.81649999999914    0.91330000000033
H         0.87260000000007   -2.23030000000025    1.54049999999995
B         0.46749141812224    0.64593057971971   -0.59216886727779
O        -0.26453061128269    0.45133034157919   -1.75153501219815
C        -0.26361844983286    1.64358038050893   -2.54208151861364
C        -0.14413332141537    1.28149750452371   -4.02035690674011
H         0.70348647703928    0.62589378024945   -4.18939732517354
H        -0.03402629355381    2.18257877831334   -4.61828306221032
H        -1.04549180657178    0.75944681128739   -4.33284599523108
C        -1.60950105438355    2.34234547304368   -2.30025192498759
H        -1.70095907478089    3.24025634700874   -2.90420900433613
H        -2.41013786632287    1.65397561164221   -2.56366133898340
H        -1.71498500376731    2.59392993074805   -1.24684749321238
C         0.94651598433761    2.43982641807922   -1.95434628253155
O         1.07364373049102    1.88129064919200   -0.63992634886750
C         2.25800730277238    2.14044754112040   -2.69065369981964
H         2.43261767241472    1.06730365531839   -2.68310278621038
H         2.23719537865333    2.51870194227210   -3.70863321014692
H         3.07697266079775    2.61357680446853   -2.15356269592584
C         0.74326106561919    3.95126221152683   -1.86446997673359
H        -0.06742857085613    4.19946787218767   -1.18618996353900
H         1.65374515907067    4.41227352529937   -1.48854326655398
H         0.52851982155901    4.35685124614602   -2.84999763910358
B         1.54399147182842    0.69249634606747    1.81581850518644
O         2.91009953940848    0.81473075179608    1.86816521359496
C         3.28317172136605    2.09879870228647    2.38454098298400
C         4.43544977495146    1.93199210647847    3.37590721440313
H         4.17911998509820    1.22656893853545    4.15901780377538
H         5.30303143934590    1.54597427231061    2.84678637151519
H         4.69213198536330    2.89096807806295    3.81771682212428
C         3.76239179144787    2.92930169615612    1.18773860369640
H         4.02712738020456    3.94049773648588    1.48174948423626
H         4.63811824092850    2.44682417697055    0.75899612967535
H         2.98124979647025    2.94149240244967    0.43294369792074
C         1.94380870881030    2.62975504060018    3.01100302993461
O         0.95307080544124    1.76401269442215    2.44308326479616
C         1.60037914911647    4.07530322004234    2.65172885508108
H         1.47606254230763    4.17918382041679    1.57904777829256
H         0.66259355539324    4.34612487620256    3.13052973244725
H         2.37911311563697    4.74789377662950    3.00074942518676
C         1.87221159103402    2.45894461693911    4.53397504667408
H         2.02559265312526    1.41677540028987    4.79937073344336
H         2.60700434986731    3.08303409643342    5.03300200338825
H         0.87880651896616    2.74603271866714    4.87089237297232
B         2.27820000000078   -1.33089999999993    0.17410000000165
O         3.18165815796942   -2.15202476073984    0.81521167189902
C         4.42488719299617   -2.18276239398328    0.10633019755765
C         5.38629300812791   -1.25883917221316    0.86168571640947
H         4.93262556379313   -0.27604666384879    0.94968941812381
H         5.52275794322107   -1.65309558511091    1.86554426778426
H         6.35207507417059   -1.19647612872277    0.36957588290800
C         4.98091791144373   -3.60706858730888    0.11730534985434
H         5.20356644669246   -3.88587341595836    1.14382167994648
H         5.89447029745730   -3.65724711944171   -0.46861050467957
H         4.25925404553184   -4.31702304658150   -0.27274193335931
C         4.02886820631706   -1.63407914769068   -1.30961075125381
O         2.77641635171076   -0.97625524412593   -1.06163077141832
C         5.01605123225137   -0.63259621160645   -1.90667837981711
H         6.00089642133943   -1.08274236367952   -1.99648182348868
H         4.67362208723529   -0.33965739183531   -2.89612970080760
H         5.07296766502030    0.25801026804705   -1.29027150663767
C         3.76256809237644   -2.74520136652353   -2.33453557503981
H         3.03790223774892   -3.45277430413216   -1.94124471112824
H         3.34281795647805   -2.29754229006834   -3.23219070902303
H         4.68008361106235   -3.26469415466063   -2.59372489810787
H        -3.08561051890622   -3.04798952766089   -3.48920656084444
H        -5.06408896866981    1.70494786558334    1.13174554201708
C         0.23590000000115   -1.68140000000349    2.96030000000668
C        -0.97639641460990   -2.19823113401670    3.42495384242603
C         1.20684914935288   -1.33345465756311    3.90145975910779
C        -2.01463074435547   -2.80261795683155    2.52262191774279
C        -1.24055284324378   -2.19327871430498    4.79378749304390
C         0.93904706122241   -1.34823796682150    5.25858965474284
H         2.18987977641546   -1.05580603806438    3.55424732413307
H        -1.59102211983134   -3.04306343319445    1.55239343892892
H        -2.85013510752692   -2.11761610429057    2.37608484084784
H        -2.40974842070454   -3.71408903506373    2.96990174363088
C        -0.30743270393488   -1.75097319392736    5.71031781353403
H        -2.19705196206889   -2.56234729276671    5.14065478930899
H         1.70261953104126   -1.05825309085546    5.96715284230081
H        -0.53608508292088   -1.75309324607178    6.76654275710595
