107
 energy: -152.621527412008 gnorm: 0.000572560009 xtb: 6.4.0 (f63f532)
N        -1.00311730899139   -2.04291725684423   -0.28966753655570
C        -2.23261413390776   -1.52082530396650   -0.48030141170842
C        -3.18903107024389   -2.19757676773842   -1.24911201828775
C        -2.86703814839212   -3.39653122355972   -1.84544046676915
C        -1.58258267114044   -3.90763486035392   -1.66500176876919
C        -0.70034606357681   -3.19697344070415   -0.87909419791593
H         0.29998309851752   -3.56329326533021   -0.69494817202682
H        -1.28500743213896   -4.83929379811004   -2.11786971528238
H        -4.18046997985473   -1.79247811336615   -1.36715002948790
C        -2.49050237926290   -0.23737437443416    0.15525694281260
N        -1.52532498681258    0.23494270743243    0.97687609789949
C        -1.71111914499147    1.42362586706325    1.55149034439565
C        -2.83038218744359    2.20203728494065    1.35031489075806
C        -3.83270271104724    1.72656798356630    0.50902372020854
C        -3.65370596801012    0.50044352099835   -0.09160632596138
H        -4.40902086477146    0.12193288694277   -0.76003692963338
H        -2.92521515571279    3.15495330525571    1.84487527921197
H        -0.90765129878551    1.75530296786472    2.19017448713684
Ir        0.42150000000025   -0.81650000000020    0.91330000000024
H         0.87260000000003   -2.23029999999980    1.54049999999995
B         0.45755484330836    0.50722073207910   -0.69921659134653
O        -0.09800644126259    0.10188780860472   -1.89770532736965
C        -0.16076404376802    1.19993197559273   -2.81267149964633
C         0.24238966089703    0.72090450862779   -4.20588861617024
H         1.19729376225337    0.20689167086655   -4.17224649649657
H         0.30155373378968    1.56231694749696   -4.89157398115220
H        -0.50612603825202    0.02154888099217   -4.57130129897122
C        -1.61978442148736    1.67730136536412   -2.85071646396768
H        -1.75083591242409    2.47904265376921   -3.57143776013794
H        -2.25285180592787    0.83868405147577   -3.13422646740660
H        -1.93206924014068    2.01564481672917   -1.86510715291014
C         0.80684157639877    2.24519752069824   -2.16244700186101
O         0.85884605945833    1.81952661921538   -0.79314856019724
C         2.23461844574105    2.14435604993288   -2.71237552793221
H         2.60237962802733    1.13327377827128   -2.55616510587687
H         2.27475601277417    2.40974315570855   -3.76489882936721
H         2.87506583073230    2.82197601344971   -2.15265693265840
C         0.33269797306175    3.69539300253436   -2.23638392761148
H        -0.60114740743148    3.83320002891711   -1.70009304340778
H         1.08210990842229    4.33773934278381   -1.78041687182690
H         0.20231098894338    3.99095391097613   -3.27424761816612
B         1.64836049090411    0.60749336858429    1.82965366278286
O         3.02332401782545    0.67456314808277    1.79841712619175
C         3.46006904271144    1.96250546198090    2.25372261237446
C         4.74874821574705    1.82584763841864    3.06248576864618
H         4.63953063963793    1.08905663356214    3.85132875208526
H         5.55073756142504    1.50115381528182    2.40427566990164
H         5.01962494385782    2.78544864594780    3.49495780363247
C         3.72852487863657    2.79914383474354    0.99659395844416
H         4.06391318896733    3.80155666024045    1.24634880865221
H         4.49779952693824    2.30356463899032    0.40862774109063
H         2.82298073249743    2.83431255538599    0.39605065603980
C         2.22151960716506    2.47231703054507    3.06291850399186
O         1.14924800558221    1.68976736898246    2.51945772982475
C         1.90766665082488    3.95661149446982    2.88632426467289
H         1.64159916511779    4.17092116653143    1.85659470210888
H         1.06487142204720    4.22200648218816    3.51971803671210
H         2.76612086315479    4.55677883037120    3.17573186032836
C         2.30880981033220    2.14281973159648    4.55804183332543
H         2.48784680486270    1.07936763983957    4.69151045565567
H         3.09389016091657    2.71722231381916    5.04034345771744
H         1.35653593633192    2.38230245651113    5.02501508216629
B         2.27820000000007   -1.33089999999678    0.17409999999984
O         3.05080909405411   -2.36501311678611    0.66115571770448
C         4.32387124869611   -2.38933014614379    0.00344962715140
C         5.32245421124580   -1.71973262052263    0.95308683305560
H         4.96049856483465   -0.72534103855689    1.19791776849396
H         5.36150370914395   -2.29698266385689    1.87338791382042
H         6.31681536636856   -1.67334698167835    0.51977449696151
C         4.74648986926590   -3.83754136665898   -0.24085725201939
H         4.89361452882210   -4.32516394071518    0.71909576998338
H         5.67895972375175   -3.86514041680807   -0.79778903649033
H         3.98374284117871   -4.38593928686390   -0.78324519495344
C         4.05373394438503   -1.54790336186391   -1.29085371458355
O         2.88276493034822   -0.79379732509195   -0.94093572390040
C         5.18014615590805   -0.59371775141476   -1.68162616759837
H         6.10261430691003   -1.14653387438931   -1.83704629184857
H         4.91615522990938   -0.08540465870333   -2.60571153073303
H         5.32658945346594    0.15560551345002   -0.91160879577674
C         3.68342447102285   -2.41399606230919   -2.50314897437909
H         2.85957371403869   -3.07597568784939   -2.25023158493183
H         3.35236210590950   -1.76237532459717   -3.30843941050854
H         4.53480405021275   -2.99459488933840   -2.84515480792992
H        -3.59530406862150   -3.92924826753642   -2.43781353988266
H        -4.72562940627020    2.30451311530439    0.32615469385474
C         0.23589999999939   -1.68139999998720    2.96029999999362
N        -0.91305185760424   -2.12541770387452    3.55768903986684
C         1.19811642061608   -1.62281003306186    3.95284983132065
C        -2.20855327813472   -2.29644263274476    2.96752589068893
C        -0.70250164529881   -2.28014600421836    4.89822397325667
C         0.60154297157889   -1.97562730262572    5.17642651069732
H         2.22519165612708   -1.36021218287606    3.79057390452832
C        -3.17690345758645   -1.17585092904903    3.28388567381266
H        -2.09168675953823   -2.38121178386811    1.88551871318653
H        -2.64008312332309   -3.23884191280904    3.33023296733830
H        -1.49982545319307   -2.58773319158649    5.54776037715964
H         1.07468444020553   -2.01513504624131    6.13984364789287
C        -2.79255099759303   -0.05208413087220    4.00056088437863
C        -4.49454550655886   -1.28067270479314    2.85252555940067
C        -3.71288212495948    0.94038063043848    4.29381573232052
H        -1.76959875160344    0.05177497648349    4.32855549456657
C        -5.41186593668366   -0.28674278447857    3.13959244214930
H        -4.80014372464139   -2.15117625085573    2.28870120487969
C        -5.02385141970189    0.82652744720905    3.86732928269272
H        -3.39984370439048    1.80718079581193    4.85700366276957
H        -6.43286071350803   -0.38204164147715    2.79972255857068
H        -5.74067930507683    1.60061484437832    4.09858818917847
