99
 energy: -139.584478765756 gnorm: 0.001181909799 xtb: 6.4.1 (1a32961)
N        -0.96510000000000   -2.11530000000000   -0.24090000000000
C        -2.24700000000001   -1.69839999999999   -0.36220000000000
C        -3.14040000000000   -2.36820000000001   -1.21199999999998
C        -2.70220000000000   -3.47560000000000   -1.93050000000000
C        -1.37780000000000   -3.89880000000000   -1.78760000000000
C        -0.54290000000001   -3.18670000000002   -0.93509999999999
H         0.49810000000000   -3.45630000000000   -0.78940000000000
H        -0.99570000000000   -4.76030000000000   -2.32770000000000
H        -4.16500000000000   -2.02890000000000   -1.31830000000000
C        -2.62130000000000   -0.50950000000000    0.44100000000000
N        -1.62600000000000    0.07330000000001    1.16019999999999
C        -1.89680000000000    1.15240000000000    1.91690000000001
C        -3.17230000000000    1.70330000000001    1.99650000000000
C        -4.20510000000000    1.11740000000000    1.26270000000000
C        -3.92610000000001    0.00250000000001    0.47820000000000
H        -4.71960000000000   -0.46420000000000   -0.09520000000000
H        -3.34630000000000    2.57510000000000    2.62070000000000
H        -1.04450000000000    1.57420000000000    2.43690000000000
Ir        0.42150000000000   -0.81650000000000    0.91330000000000
H         0.87260000000000   -2.23030000000000    1.54050000000000
B         0.50670000000000    0.41560000000000   -0.81540000000000
O         0.19500000000000   -0.04700000000000   -2.09150000000001
C         0.00650000000000    1.10040000000000   -2.95430000000000
C         0.49020000000002    0.74740000000000   -4.35780000000000
H         1.51610000000000    0.37380000000000   -4.33700000000000
H         0.44730000000000    1.62240000000000   -5.01670000000000
H        -0.14740000000001   -0.03389999999999   -4.78430000000000
C        -1.50120000000000    1.39560000000001   -2.96670000000000
H        -1.75370000000000    2.21460000000000   -3.64850000000000
H        -2.03200000000000    0.49450000000000   -3.28930000000000
H        -1.85170000000000    1.65210000000000   -1.96220000000000
C         0.84230000000000    2.20669999999999   -2.22040000000001
O         0.75200000000000    1.78260000000000   -0.83689999999999
C         2.32930000000002    2.18620000000001   -2.59899999999999
H         2.74130000000000    1.18500000000000   -2.45750000000000
H         2.48870000000000    2.51300000000000   -3.63180000000000
H         2.87200000000000    2.86270000000000   -1.93200000000000
C         0.28440000000000    3.62290000000000   -2.33659999999999
H        -0.72650000000000    3.69040000000000   -1.92910000000000
H         0.92130000000000    4.31480000000000   -1.77610000000000
H         0.26430000000000    3.94810000000000   -3.38320000000000
B         1.56300000000000    0.60960000000000    1.84840000000000
O         2.92780000000000    0.55230000000000    2.15020000000000
C         3.36330000000001    1.88660000000000    2.50259999999999
C         4.53140000000000    1.78590000000000    3.47739999999999
H         4.27910000000000    1.16090000000001    4.33689999999999
H         5.39389999999999    1.33790000000000    2.97340000000000
H         4.82390000000000    2.77870000000000    3.83820000000000
C         3.79700000000000    2.56850000000000    1.19669999999999
H         4.20020000000000    3.57090000000000    1.37680000000000
H         4.56740000000000    1.95560000000000    0.72110000000000
H         2.95239999999999    2.63260000000000    0.50540000000000
C         2.05039999999999    2.50090000000000    3.09320000000001
O         1.03750000000000    1.81619999999999    2.31910000000000
C         1.89100000000001    4.00449999999999    2.88649999999998
H         1.87290000000000    4.25440000000000    1.82410000000000
H         0.94940000000000    4.34260000000000    3.33170000000000
H         2.71080000000000    4.55150000000000    3.36630000000000
C         1.82469999999999    2.13199999999999    4.56520000000003
H         1.92610000000000    1.05330000000001    4.71320000000000
H         2.52610000000000    2.65280000000000    5.22539999999999
H         0.80630000000000    2.41580000000000    4.84900000000000
B         2.27820000000000   -1.33090000000000    0.17410000000000
O         2.89460000000000   -2.57740000000000    0.38450000000000
C         4.26930000000000   -2.48200000000000   -0.07210000000000
C         5.10900000000000   -2.05380000000000    1.14010000000000
H         4.76350000000000   -1.08740000000000    1.51750000000000
H         4.98050000000000   -2.79470000000000    1.93590000000000
H         6.17420000000000   -1.99290000000000    0.89300000000000
C         4.71950000000000   -3.84660000000000   -0.58470000000000
H         4.75280000000000   -4.56130000000000    0.24420000000000
H         5.72330000000000   -3.78370000000000   -1.02010000000000
H         4.03500000000000   -4.23600000000000   -1.34170000000000
C         4.16440000000001   -1.36220000000000   -1.16299999999999
O         3.08520000000000   -0.55030000000000   -0.65400000000000
C         5.40720000000000   -0.48870000000000   -1.31550000000000
H         6.27320000000000   -1.09010000000000   -1.61530000000000
H         5.23300000000000    0.26930000000000   -2.08590000000000
H         5.64270000000000    0.02650000000000   -0.38240000000000
C         3.71800000000000   -1.89829999999999   -2.53110000000001
H         2.82530000000000   -2.52159999999999   -2.42740000000000
H         3.46090000000000   -1.05249999999999   -3.17550000000000
H         4.50569999999999   -2.48290000000000   -3.01790000000000
H        -3.38500000000000   -4.00130000000000   -2.59310000000000
H        -5.21400000000000    1.52080000000000    1.29960000000000
C         0.23590000000001   -1.68140000000000    2.96030000000000
C        -0.97640294380951   -2.20764760690394    3.40051687332206
C         1.27219276994403   -1.58401651533417    3.89148672211319
C        -1.18243518289653   -2.56862773084458    4.73168505552817
H        -1.78777600488030   -2.36928017703047    2.69902331784514
C         1.07839197780663   -1.91238296579435    5.22377621084439
H         2.25122168876665   -1.26575660210852    3.55907825499445
C        -0.14714542901411   -2.40526045754307    5.64713875621996
C        -2.47164813235550   -3.20179551393051    5.16517744787317
H         1.89519429401727   -1.81887486329078    5.92956991688163
H        -0.28941799906009   -2.69398539295834    6.68159281267197
H        -3.30504484914273   -2.86203617679894    4.54980625709800
H        -2.68286238230084   -2.97419464139240    6.21024524395398
H        -2.39707648111379   -4.28737093653057    5.06684974017394
