15
 energy: -19.059165693054 gnorm: 0.000136664333 xtb: 6.4.1 (1a32961)
C         0.27533243570253   -1.19093970911183   -0.00361291383771
C        -1.10761407098561   -1.19558217956290    0.00084538981590
C        -1.80672658511574    0.00076971753455    0.00429336712114
C        -1.11214929347024    1.19793163383795    0.00293074436078
C         0.27286651880480    1.19868818677696   -0.00165507476562
C         0.98436112817637    0.00618543369745   -0.00511255669995
C         2.48392970016076   -0.00597393432638   -0.01066066370587
H         0.81644395062043   -2.12694611176866   -0.00627818641843
H        -1.64296132059633   -2.13442119418659    0.00225254452050
H        -2.88696284191756   -0.00121157257213    0.00878694457989
H        -1.64985500471577    2.13540647442384    0.00606596726590
H         0.80678143578061    2.13886595036202   -0.00273442764240
H         2.88165612155072    1.00553785962848    0.00266421493530
H         2.85499832598934   -0.51476729331355   -0.89969082683178
H         2.86120950001570   -0.54123326141922    0.85982547730237
