12
 energy: -19.200205574327 gnorm: 0.000125038478 xtb: 6.4.0 (f63f532)
C         1.53690824279482   -1.21244951579153    0.01070433775452
C         2.92198453312210   -1.18674346146829   -0.00452121305569
C         3.59877242863473    0.02173873975298   -0.01325421253053
C         2.88903756744785    1.21119161316686   -0.00565005731591
C         1.50379707465249    1.19867493048883    0.00950919075760
C         0.84388633708168   -0.01616726711864    0.01737616108718
I        -1.28545560015624   -0.04502737639541    0.03838136960156
H         1.00906184779552   -2.15362734630492    0.01739263801812
H         3.46861122669246   -2.11744959695644   -0.01052573684679
H         4.67775444000575    0.03646365501113   -0.02685574979321
H         3.40994545419163    2.15658094920183   -0.01250097383836
H         0.95037644773722    2.12501467641360    0.01529424616152
