111
 energy: -157.925441926892 gnorm: 0.000265521927 xtb: 6.4.0 (f63f532)
N        -0.86847824769375   -1.93479348558376   -0.49199282182820
C        -2.11436524387177   -1.44586308447949   -0.65063082599086
C        -2.92862729361463   -1.87689868873081   -1.70548762652736
C        -2.46052608539435   -2.82032286507849   -2.59293461175638
C        -1.17505408752828   -3.32538424333114   -2.41047881744439
C        -0.42842491226554   -2.84847702136076   -1.35442400116222
H         0.57459038825713   -3.20927736481286   -1.17578467343163
H        -0.76891202938710   -4.06810555677120   -3.07769862841797
H        -3.91608145126763   -1.46652897439917   -1.83857165851869
C        -2.54094650413153   -0.44180213157334    0.31492266825559
N        -1.60563370487899   -0.00928481300692    1.18786760880478
C        -1.94753470918445    0.91410045149210    2.08403156205152
C        -3.21329296114632    1.45473154043172    2.17709527101227
C        -4.19107446517923    1.01494856035124    1.28787277105081
C        -3.84678342406063    0.06391633197166    0.35237375213934
H        -4.59142796666773   -0.29469210468843   -0.33884007440143
H        -3.43482251534766    2.19424359049573    2.92952277539388
H        -1.15490339301111    1.22864057208471    2.74556435863169
Ir        0.42149999999990   -0.81650000000020    0.91329999999991
H         0.87260000000012   -2.23029999999993    1.54050000000016
B         0.41946598982358    0.70964044694605   -0.51938857522858
O        -0.34906340774053    0.59778255377938   -1.66732203457739
C        -0.43335028457138    1.86807970070410   -2.32264901045803
C        -0.37499006396375    1.67691020039598   -3.83596929254909
H         0.48758136731484    1.08245189024383   -4.11808598717175
H        -0.33078842238236    2.64323952123572   -4.33197397782528
H        -1.27030605360744    1.15405768612302   -4.16409144376718
C        -1.79101952634192    2.47687464093146   -1.94202769343750
H        -1.94887895280250    3.42885253062021   -2.44004056210018
H        -2.57790214690216    1.78599276246794   -2.23885606585883
H        -1.85040003932415    2.61117344358651   -0.86366986261785
C         0.77190366106457    2.64960063693506   -1.70543392738019
O         0.97944563391431    1.96413418310317   -0.46353093308993
C         2.05988468770532    2.48484189881128   -2.52107270649402
H         2.27151764148684    1.42553904783821   -2.64540144652000
H         1.98361079906565    2.97563411610452   -3.48702882476007
H         2.88314147337197    2.92383643178547   -1.96237023901220
C         0.51701749629543    4.13305351879660   -1.44545585188119
H        -0.26912989839413    4.27357362437762   -0.70993988075105
H         1.42648608521414    4.58818134855834   -1.06025229341524
H         0.24170310818516    4.63191872341544   -2.37117150015542
B         1.53921155906545    0.62112536302578    1.93560688279594
O         2.90331888799144    0.74154482807877    2.00552945722162
C         3.26360011682888    1.97604696520198    2.64300886917087
C         4.44269643925115    1.74082021277518    3.58614475381296
H         4.22787108240673    0.94145437262604    4.28741755579885
H         5.31306023792165    1.45305003242837    3.00193328167862
H         4.67250253097988    2.65229518249393    4.13123157038730
C         3.68593149176474    2.93502119155444    1.52334159192734
H         3.94757172297479    3.91420160273888    1.91286922996875
H         4.55087848999710    2.51422576299362    1.01562131775642
H         2.87780971394654    3.01231635731198    0.80071052346016
C         1.93067680348636    2.40638705065391    3.34927403526601
O         0.94166221168363    1.61877201940266    2.67211382796595
C         1.57553573731370    3.88547044530876    3.20142686228334
H         1.43077882760592    4.14029654251114    2.15682662482393
H         0.64711351747988    4.08255988105271    3.73206072185527
H         2.35993919076217    4.50527775018203    3.62696998453698
C         1.87670034401054    2.02099159873616    4.83332446160536
H         2.05232028774476    0.95518767988135    4.95265475699042
H         2.60386181109001    2.58385163891673    5.41010967592140
H         0.88138925601103    2.23852403286204    5.21455734601029
B         2.27819999999889   -1.33089999999939    0.17409999999934
O         3.15356266706321   -2.23544247347124    0.73340101385260
C         4.42651335726576   -2.17171028264185    0.07741580473678
C         5.35398215435079   -1.37702830483294    1.00288685741953
H         4.89344706051903   -0.41846652237275    1.22312927225310
H         5.45399328464618   -1.92122503169173    1.93865322958835
H         6.33755102246831   -1.24201684814379    0.56380727128357
C         4.97960637551506   -3.58624600103634   -0.09778620694511
H         5.15070458014359   -4.01765363341436    0.88484088630807
H         5.92133050139024   -3.55494673438230   -0.63850607881553
H         4.27866268682245   -4.22371695729211   -0.62616123413601
C         4.09436462059248   -1.41758556118574   -1.25993051427579
O         2.81577565538069   -0.82418761889549   -0.98683585928715
C         5.08149061227394   -0.31259535758010   -1.63390054511204
H         6.08275780197576   -0.71918682050696   -1.74506856993334
H         4.77589491496428    0.13194340339027   -2.57774336100334
H         5.07991894623897    0.46522536629286   -0.87817794563013
C         3.91539615318008   -2.35574615321744   -2.46119246895200
H         3.18464028717863   -3.12663575520850   -2.23318552817015
H         3.54089769024919   -1.77642002064672   -3.30168922816483
H         4.85879461103043   -2.81485959100373   -2.74056194778157
H        -3.07596093014385   -3.15733469417153   -3.41307710486986
H        -5.19588729195874    1.40702826414638    1.33042615267261
C         0.23590000000109   -1.68139999999638    2.96030000000255
C        -1.01758945704692   -2.11709982179264    3.38758915315603
C         1.22021312315276   -1.59787536941339    3.94823449610559
C        -1.23954939557901   -2.38211816291596    4.73067780682155
H        -1.82451967205373   -2.27256423476170    2.68333114147903
N         1.02005591303091   -1.86020224511336    5.22690909781267
H         2.23298492022180   -1.32475419039369    3.68124260190852
C        -0.18739357934073   -2.25189508790800    5.62831076715064
H        -2.20938801961940   -2.71596811985315    5.07232736943608
C        -0.31058121890708   -2.65393833582033    7.06913956795972
C         0.13466680490180   -4.12237842317573    7.22124093728047
H        -1.34022150800070   -2.54513540428328    7.41318319247741
H         0.33862884222877   -2.02264786180429    7.67588991027650
C         0.11977134969392   -4.55587884967739    8.65794868791430
H         1.14360172544146   -4.21213152208662    6.81453139322855
H        -0.53048831131013   -4.75625036285067    6.63095012627125
C        -0.98431416386296   -5.20351572270351    9.19794460336763
C         1.20970091364268   -4.29699006228675    9.48123108253963
C        -0.99817471380432   -5.58910018472223   10.52746575215692
H        -1.83834580463210   -5.41435932509807    8.56926875972229
C         1.19901338810941   -4.68064470785564   10.81034382392382
H         2.07458626390568   -3.79589646147459    9.07047446990869
C         0.09400490680533   -5.32872364937029   11.33765303549422
H        -1.86229428849373   -6.09695921354523   10.93178030334573
H         2.05560385538491   -4.47660673341961   11.43669301429368
H         0.08550382468318   -5.63242793492953   12.37433373836143
