107
 energy: -165.310565277649 gnorm: 0.003420219412 xtb: 6.4.1 (1a32961)
N        -0.96510000000001   -2.11529999999999   -0.24090000000000
C        -2.24700000000000   -1.69840000000000   -0.36220000000000
C        -3.14040000000001   -2.36820000000000   -1.21199999999999
C        -2.70220000000000   -3.47560000000002   -1.93050000000000
C        -1.37780000000003   -3.89880000000003   -1.78760000000001
C        -0.54289999999999   -3.18670000000000   -0.93509999999999
H         0.49810000000000   -3.45630000000000   -0.78940000000000
H        -0.99570000000000   -4.76029999999998   -2.32770000000000
H        -4.16500000000001   -2.02890000000000   -1.31830000000000
C        -2.62130000000001   -0.50950000000000    0.44099999999999
N        -1.62600000000001    0.07329999999997    1.16020000000000
C        -1.89679999999999    1.15239999999998    1.91690000000001
C        -3.17229999999999    1.70330000000004    1.99650000000000
C        -4.20510000000001    1.11739999999999    1.26269999999997
C        -3.92609999999998    0.00249999999998    0.47820000000001
H        -4.71959999999999   -0.46420000000000   -0.09520000000000
H        -3.34630000000000    2.57510000000000    2.62070000000001
H        -1.04450000000001    1.57419999999999    2.43689999999999
Ir        0.42150000000000   -0.81650000000000    0.91330000000000
H         0.87260000000000   -2.23030000000000    1.54050000000000
B         0.50670000000000    0.41559999999998   -0.81540000000001
O         0.19500000000000   -0.04700000000001   -2.09150000000000
C         0.00649999999997    1.10040000000002   -2.95430000000002
C         0.49020000000002    0.74739999999998   -4.35780000000000
H         1.51610000000001    0.37380000000000   -4.33700000000000
H         0.44730000000000    1.62240000000002   -5.01670000000001
H        -0.14740000000001   -0.03389999999997   -4.78429999999999
C        -1.50119999999998    1.39560000000000   -2.96669999999998
H        -1.75370000000001    2.21460000000000   -3.64850000000001
H        -2.03199999999998    0.49450000000000   -3.28930000000000
H        -1.85169999999999    1.65209999999999   -1.96220000000000
C         0.84229999999998    2.20670000000002   -2.22040000000001
O         0.75200000000000    1.78260000000001   -0.83690000000001
C         2.32930000000000    2.18620000000001   -2.59899999999998
H         2.74130000000000    1.18499999999999   -2.45750000000000
H         2.48870000000000    2.51300000000000   -3.63180000000000
H         2.87200000000000    2.86269999999999   -1.93199999999999
C         0.28440000000001    3.62289999999999   -2.33659999999998
H        -0.72649999999999    3.69040000000000   -1.92910000000000
H         0.92130000000000    4.31480000000001   -1.77609999999998
H         0.26430000000000    3.94810000000000   -3.38320000000001
B         1.56300000000001    0.60960000000000    1.84840000000000
O         2.92779999999999    0.55230000000000    2.15020000000000
C         3.36329999999999    1.88660000000002    2.50260000000000
C         4.53139999999997    1.78589999999999    3.47739999999999
H         4.27910000000000    1.16090000000000    4.33690000000000
H         5.39390000000000    1.33790000000000    2.97339999999999
H         4.82390000000000    2.77869999999997    3.83820000000000
C         3.79700000000000    2.56850000000000    1.19670000000000
H         4.20020000000000    3.57090000000000    1.37680000000000
H         4.56740000000000    1.95560000000000    0.72110000000000
H         2.95240000000000    2.63260000000000    0.50540000000000
C         2.05040000000000    2.50090000000001    3.09320000000001
O         1.03750000000000    1.81620000000000    2.31910000000001
C         1.89100000000001    4.00449999999998    2.88649999999995
H         1.87290000000000    4.25440000000000    1.82410000000000
H         0.94940000000000    4.34260000000000    3.33170000000000
H         2.71080000000000    4.55149999999998    3.36630000000000
C         1.82469999999998    2.13200000000001    4.56520000000000
H         1.92610000000000    1.05330000000002    4.71320000000000
H         2.52610000000000    2.65280000000000    5.22539999999999
H         0.80629999999997    2.41579999999999    4.84900000000001
B         2.27820000000000   -1.33090000000000    0.17410000000000
O         2.89460000000000   -2.57740000000000    0.38450000000000
C         4.26929999999999   -2.48200000000000   -0.07209999999997
C         5.10899999999999   -2.05380000000002    1.14010000000004
H         4.76350000000000   -1.08739999999999    1.51750000000000
H         4.98050000000000   -2.79470000000000    1.93590000000002
H         6.17420000000001   -1.99290000000000    0.89300000000000
C         4.71950000000000   -3.84660000000000   -0.58469999999996
H         4.75280000000000   -4.56130000000000    0.24420000000002
H         5.72330000000000   -3.78370000000000   -1.02009999999996
H         4.03500000000001   -4.23600000000001   -1.34170000000002
C         4.16440000000002   -1.36220000000000   -1.16300000000001
O         3.08520000000001   -0.55030000000000   -0.65400000000000
C         5.40720000000001   -0.48870000000000   -1.31550000000002
H         6.27320000000002   -1.09010000000000   -1.61530000000000
H         5.23300000000000    0.26929999999999   -2.08590000000000
H         5.64270000000000    0.02649999999999   -0.38240000000000
C         3.71800000000001   -1.89830000000002   -2.53109999999994
H         2.82529999999998   -2.52160000000000   -2.42740000000000
H         3.46090000000000   -1.05250000000001   -3.17549999999999
H         4.50570000000000   -2.48290000000000   -3.01790000000000
H        -3.38499999999998   -4.00130000000001   -2.59310000000001
H        -5.21400000000000    1.52080000000001    1.29959999999999
C         0.23589999999999   -1.68140000000001    2.96030000000000
C        -0.98475221101062   -2.08173537570487    3.47535667618547
C         1.34086435487899   -1.84959578623362    3.85187315133842
C        -1.10598111305956   -2.51996343309965    4.80342794815516
H        -1.87461477155430   -2.09949469148658    2.85897925853273
C         2.68109641720646   -1.78201614581835    3.43360365903918
C         1.12328264287826   -2.20732856869135    5.21184062723566
N        -0.10096420809644   -2.53216503840858    5.66472554234985
C        -2.39445733810299   -3.08149604862098    5.31987716768274
C         3.73809745123417   -1.92273015697404    4.30091440173008
H         2.87513058205077   -1.63410023741767    2.38694519680988
C         2.19994402887715   -2.35011405668549    6.10346330373855
H        -2.24604599142955   -3.40970436640607    6.34808143463740
H        -2.69055164092750   -3.93723094012452    4.71154936047992
H        -3.19031766263566   -2.33790289534935    5.28433696920610
C         3.49679132567161   -2.19066321106316    5.65311653101350
H         4.75864047199003   -1.84325169745720    3.94921222251213
H         1.99424216708941   -2.62551942388507    7.12966539603549
C         4.70399963133135   -2.35692619778836    6.52674898604537
F         5.44316768139464   -1.22275848100047    6.61471490713196
F         4.44047779010067   -2.72009310215055    7.79880401308648
F         5.56228822127110   -3.29143231986221    6.04917113894354
