108
 energy: -154.762165202156 gnorm: 0.000576884209 xtb: 6.4.0 (f63f532)
N        -0.88114661213074   -2.00007499099631   -0.43103803704183
C        -2.15241506994810   -1.57225527616616   -0.55070206221761
C        -3.01739568180214   -2.14605567641547   -1.49178616583841
C        -2.56697558807976   -3.15535241921991   -2.31388051327836
C        -1.24788861389591   -3.58262409643679   -2.18236206042669
C        -0.45647082846905   -2.97417625513582   -1.23114217908345
H         0.57244258058864   -3.27364952470708   -1.09145728034984
H        -0.85162034683475   -4.36910380195408   -2.80361227353354
H        -4.03467783775815   -1.80337390920368   -1.58381303431458
C        -2.55783252779835   -0.49044120506358    0.33817488326418
N        -1.61637046072156   -0.01451508836847    1.18058774022481
C        -1.94441230901843    0.97078811505277    2.01325343134805
C        -3.20002939158060    1.54028724707474    2.06497700783014
C        -4.18022410613704    1.06669160349925    1.19682218057343
C        -3.85088173795993    0.04811225281469    0.32939836013217
H        -4.59687099325579   -0.33021077582429   -0.34947733205907
H        -3.41098125580819    2.32934745168434    2.76837863670266
H        -1.14871976575782    1.31364488897788    2.65651849008792
Ir        0.42149999999985   -0.81649999999984    0.91329999999986
H         0.87260000000001   -2.23030000000005    1.54049999999979
B         0.37678742081323    0.68538260194079   -0.54480370420960
O        -0.44098165933329    0.54327386514360   -1.65392427709183
C        -0.55259553854933    1.79382346631432   -2.34189405607516
C        -0.55746253582241    1.55955432071999   -3.85053049729996
H         0.28933127235433    0.95127903584203   -4.15074679569586
H        -0.52824267233854    2.51105801196648   -4.37552707750453
H        -1.46866935390082    1.03425408575994   -4.12701372561431
C        -1.89312040373442    2.41577451256088   -1.92334584396053
H        -2.07189169803810    3.35294707718905   -2.44199409331734
H        -2.69136713355384    1.71737294745603   -2.16738046087036
H        -1.90884050028319    2.58113411665228   -0.84772085809637
C         0.67729580332420    2.59229797717332   -1.79862184781305
O         0.94120189431622    1.93947703790469   -0.54974509172739
C         1.92857633133557    2.40949490063995   -2.66613276917650
H         2.13837878890955    1.34807075022783   -2.77425631987152
H         1.80707137613163    2.87500408106517   -3.63988151872839
H         2.77460965456249    2.86545769948529   -2.15704402781663
C         0.43039981417492    4.08170961351082   -1.56580300444481
H        -0.32323839433673    4.23995724829798   -0.80048106550672
H         1.35466084414792    4.54858599103745   -1.23348416562157
H         0.11298248700018    4.55567120319071   -2.49098807329903
B         1.53388720045146    0.65542412766716    1.89195656290018
O         2.89754784399489    0.80355464584374    1.92732491747906
C         3.24838165313210    2.07189534505572    2.49818686518207
C         4.45946169271988    1.90455246740722    3.41494215453001
H         4.28251649385739    1.13500425911011    4.15854712003932
H         5.31706776029552    1.60542192162615    2.81799072301893
H         4.68678871561505    2.84443007562853    3.91058211077065
C         3.61842915449524    2.98977247427070    1.32682186491296
H         3.87296421263804    3.98908750351479    1.66657725875614
H         4.47543785037349    2.56355809123703    0.81020077957278
H         2.78745253776809    3.02145408415636    0.62737260337959
C         1.92615406249709    2.50534784080911    3.22235880052769
O         0.93664577159787    1.67124723798858    2.60542655924325
C         1.53792340980476    3.96994324377612    3.02568404665446
H         1.35494531097423    4.17700883920897    1.97658490788666
H         0.62377252642142    4.17272463632643    3.57830125916494
H         2.32370919609552    4.62120365730365    3.39824749433139
C         1.91988562573726    2.17736830098709    4.72082637666720
H         2.12351727924195    1.12053412723682    4.86945838918471
H         2.64855138889168    2.77730282166565    5.25709108272733
H         0.92982701545141    2.38327488701890    5.12116137118582
B         2.27819999999996   -1.33089999999937    0.17410000000034
O         3.22092372752131   -2.12512305872496    0.78659153273311
C         4.44591403297846   -2.11045082477292    0.04174876660155
C         5.39818590239169   -1.16397805443718    0.78013070098996
H         4.91235151065699   -0.20031497124980    0.90167049489783
H         5.58564049700336   -1.56996229273725    1.77074663423882
H         6.34276393945391   -1.05800088940212    0.25567611170647
C         5.04675657829463   -3.51593573767413    0.02049125005381
H         5.30903644268647   -3.79962360384846    1.03601343970774
H         5.94357875188746   -3.52884433668490   -0.59258652025294
H         4.33757518547968   -4.24487124545534   -0.35703177182483
C         3.99687411003830   -1.56001050053354   -1.35854640759899
O         2.72538720528989   -0.95674108501011   -1.07359526637860
C         4.92387494318844   -0.50574372375621   -1.96167128171652
H         5.92319219547376   -0.91112964046350   -2.09342706443600
H         4.53626660554037   -0.20590549463766   -2.93214908423203
H         4.96254375504836    0.37262256180769   -1.32673939563344
C         3.75561315025323   -2.66506337926691   -2.39601832711464
H         3.07480247203948   -3.41330555008937   -1.99971776757520
H         3.29361584918047   -2.22144823139346   -3.27459989449352
H         4.68921494879797   -3.13674858459672   -2.68717856478229
H        -3.22333256728921   -3.60275420328542   -3.04462833599366
H        -5.17522523156291    1.48517453635052    1.20187773027220
C         0.23590000000436   -1.68140000000169    2.96029999999823
C        -1.04101725362582   -2.05696412208265    3.37781289438268
C         1.21111759238235   -1.58052752374546    3.95026097522928
C        -1.28741929951646   -2.20853059415300    4.73197345681073
H        -1.84242622193688   -2.23461992337042    2.67574607424407
C         0.87261253631218   -1.77725692070936    5.28370816327206
H         2.23181978126184   -1.36318411404052    3.67599579399706
N        -0.36564509716792   -2.07105427842317    5.67021346822502
H        -2.27741545557394   -2.46727195107347    5.09102214335912
C         1.91858748582207   -1.73216630529995    6.36896809099957
C         2.59526582935292   -3.07623732991789    6.45554115725882
H         1.42538850307030   -1.50693017819159    7.31533213965085
H         2.65488343517349   -0.95966012566076    6.14625190182250
C         3.89461602783062   -3.25692322911693    6.00238371558247
C         1.90567725430575   -4.16733022552220    6.97146478024267
C         4.49914375099100   -4.50084738202953    6.07295195638283
H         4.43992743121699   -2.41848610500255    5.59378542654840
C         2.50656327104025   -5.41118573712407    7.03961486313296
H         0.88962815775935   -4.03152016706012    7.31212827287505
C         3.80730100686239   -5.58107878325417    6.59270201775403
H         5.51333954016040   -4.62621627155268    5.72186820348110
H         1.96031672238110   -6.25126247614132    7.44409327915251
H         4.27797872595701   -6.55191613586155    6.64827219725425
