101
 energy: -147.744991670393 gnorm: 0.000533598129 xtb: 6.4.1 (1a32961)
N        -1.00202323228344   -2.07261108324187   -0.28761614162170
C        -2.25378585154007   -1.59427818020818   -0.41596676760392
C        -3.17565830745144   -2.21376955563033   -1.26821066697892
C        -2.79563365504283   -3.32191416378132   -1.99585500808234
C        -1.49285451820486   -3.79356562755156   -1.86269308882873
C        -0.64002498095447   -3.13529998210710   -0.99849675859033
H         0.38200041375348   -3.45698803256946   -0.85888225534402
H        -1.15334177555939   -4.65539269824738   -2.41367051891127
H        -4.18047780140009   -1.83574816818584   -1.36021108635971
C        -2.57198624478128   -0.40464352745658    0.37064592665141
N        -1.59723916163744    0.05063609988188    1.18269859741170
C        -1.83596979811638    1.11987687625964    1.93630738380861
C        -3.03198976064048    1.80898202384751    1.91893812860837
C        -4.03942954044104    1.36797017523996    1.06603569020748
C        -3.80576318318027    0.25130694383201    0.29101977023222
H        -4.57551366369679   -0.10536689342346   -0.37350098618036
H        -3.17644133763867    2.66849466319452    2.55296522942859
H        -1.02525635006373    1.41803086070851    2.58411968415889
Ir        0.42149999999995   -0.81650000000017    0.91329999999997
H         0.87259999999992   -2.23030000000006    1.54050000000010
B         0.36933422664862    0.37880177536004   -0.77163597778308
O         0.48656354742318   -0.13268539116552   -2.04985858718640
C         0.04790689430101    0.84322410082067   -3.00413204815089
C         0.93596229359973    0.79228544329556   -4.24379791705726
H         1.98290149002632    0.86972091210541   -3.97099565181571
H         0.67461397875302    1.59904505820025   -4.92371459737841
H         0.78512249665482   -0.15833191724225   -4.74994952737566
C        -1.39120254279940    0.47475018296640   -3.39453521463922
H        -1.76993987702772    1.13777761742386   -4.16672261563455
H        -1.40115630417422   -0.54785449442870   -3.76610056743955
H        -2.03740897549036    0.52148258093518   -2.51999562200457
C         0.12275825589254    2.17013947521998   -2.18250681265801
O        -0.01168650207650    1.70345513411932   -0.83321019495159
C         1.49806715373446    2.83939425897947   -2.28437955360705
H         2.26617012459235    2.12043669167705   -2.00916257017442
H         1.67713262490530    3.23015503772111   -3.28196343806131
H         1.54041919927112    3.65511771830213   -1.56704329715069
C        -0.97095334539957    3.18836454797775   -2.49642684926432
H        -1.95430993452274    2.79675014767159   -2.25507280965428
H        -0.80711330546592    4.08229816868054   -1.90002548723125
H        -0.93634993976118    3.45661405033860   -3.54918224794230
B         1.50860332564578    0.75260956498462    1.76173511003857
O         2.39408615406276    1.58339320785130    1.14002241426024
C         3.03645924264517    2.42772138959171    2.09932283780811
C         4.39764967587610    1.78950737478951    2.40098354800571
H         4.24731290110788    0.77360765768088    2.75712530308200
H         4.95565753359341    1.72760646819047    1.47083177857546
H         4.96270997450664    2.37132768685000    3.12323898147055
C         3.25005261454996    3.81738298925793    1.50090767928700
H         3.66125075967281    4.48986307714095    2.24905748987313
H         3.95112431603571    3.73619563805354    0.67474388027475
H         2.32026702070965    4.22265606763485    1.11598358854261
C         2.05148778215126    2.37144915847215    3.31655436657911
O         1.31331122991940    1.16398663156800    3.07080644803756
C         1.04149667338707    3.52709367853873    3.31993564811870
H         0.53215488923857    3.57224673291069    2.36053406727909
H         0.30086605137225    3.34224049930480    4.09506268848904
H         1.53388691208333    4.47353896530244    3.52223376548152
C         2.72606369690472    2.28635693912130    4.68375356057155
H         3.32532801332262    1.38555873520853    4.75669723179996
H         3.35555045908619    3.15742981993286    4.84439235293307
H         1.96250443172154    2.25482841406626    5.45719901935856
B         2.27820000000006   -1.33089999999909    0.17409999999939
O         2.48584616028869   -2.66356049202522   -0.17217607332964
C         3.84570573339541   -2.85616203732546   -0.57500311907188
C         4.58250158216785   -3.45419979955634    0.63037200259663
H         4.48045615972296   -2.78458484238635    1.48089232719522
H         4.11414620911392   -4.40079603138766    0.89089662774913
H         5.63095698406112   -3.62696152565684    0.40864284510000
C         3.89964489706071   -3.83655222289082   -1.74601687718409
H         3.57012300790972   -4.81423090984708   -1.40302698499551
H         4.91756090009645   -3.92011131186871   -2.11645104260859
H         3.24388745092395   -3.51790241988065   -2.54950339389652
C         4.30805285150028   -1.39699084361475   -0.90417753338201
O         3.36951896842618   -0.59282973346263   -0.17610823639176
C         5.72775989724112   -1.05719443488812   -0.45742975762989
H         6.43987535923959   -1.73886691529574   -0.91485791125227
H         5.96308349522371   -0.04210208432989   -0.76590061322213
H         5.80691745938344   -1.11067047238155    0.62292970971826
C         4.13395864481305   -1.04106895952220   -2.38666637648667
H         3.10258714677055   -1.21808390623884   -2.68138125445765
H         4.34280702718481    0.01872602920467   -2.51196980674454
H         4.81087738495226   -1.61304718398730   -3.01425134241764
H        -3.49640617738852   -3.81000655358665   -2.65617079171366
H        -4.98549025118177    1.88489335913016    1.01258823572296
C         0.23589999999919   -1.68139999999844    2.96030000000098
C        -1.04563021249005   -1.94288357801514    3.51199520813542
C         1.09522840063332   -1.66764882044560    4.05045914240478
C        -0.90427906354843   -2.00968796269156    4.87024268570864
H        -1.96715423461794   -2.05593656206958    2.97624263127590
O         0.38510036263242   -1.84751013921097    5.21430508678373
C         2.52174061208571   -1.52072571044845    4.13961772695230
C        -1.90086550642620   -2.21051534133959    5.95520599029797
O         3.24681535747017   -1.40368885439266    3.15663157331683
C         3.08607701014752   -1.55297459988580    5.54383681858124
H        -1.57508365657096   -3.00851751764020    6.61991592669920
H        -2.86573636505245   -2.46260793801060    5.52708127492385
H        -1.99837408085676   -1.30058633924834    6.54657205072593
H         2.88110389199084   -2.52273732586454    5.99217361539147
H         2.60084818532089   -0.79344789973432    6.15120435516099
H         4.15914626407109   -1.38355141294305    5.51586301295461
