100
 energy: -144.169180399180 gnorm: 0.000164150420 xtb: 6.4.1 (1a32961)
N        -0.90602711778614   -2.02475047713835   -0.36947876348412
C        -2.15706073807725   -1.55326974976301   -0.54386187395225
C        -3.03508055770148   -2.16066175462448   -1.45210834766520
C        -2.61910397719497   -3.24726986409334   -2.18782517992736
C        -1.31981842878072   -3.71808572177581   -2.00354015524564
C        -0.51517826239094   -3.07483363848898   -1.08811461146136
H         0.49644683439438   -3.41021088117605   -0.90701579031408
H        -0.95134178121474   -4.56632062255677   -2.55736998153251
H        -4.03731986737130   -1.78552787587010   -1.57993606564320
C        -2.52139924964074   -0.39344208614537    0.25469018150623
N        -1.58321601940865    0.06234371674834    1.11530584090289
C        -1.87426650192702    1.11949785660350    1.87270455327689
C        -3.07948658801867    1.78736751665058    1.81944357615768
C        -4.05057377615005    1.34036656180938    0.92483883276338
C        -3.76411971515151    0.24407880881389    0.14185983280018
H        -4.50066337396264   -0.11450672384793   -0.55811567213896
H        -3.26106146136762    2.63575969814547    2.45944936081058
H        -1.08750822856633    1.43470349522267    2.54085282199072
Ir        0.42149999999997   -0.81650000000013    0.91329999999987
H         0.87260000000000   -2.23029999999996    1.54050000000012
B         0.41925135834614    0.61192720219239   -0.60516562123767
O        -0.17834170233422    0.30746259179909   -1.81543741679648
C        -0.27282778529676    1.48176064859995   -2.62698176716773
C         0.04272266591124    1.12964974639209   -4.07876527226005
H         0.98243316423223    0.59166491258589   -4.14636296051517
H         0.09288782633391    2.03285833652331   -4.68157307053414
H        -0.74436206463284    0.48920011788682   -4.46989579624665
C        -1.72277430278169    1.97876334935933   -2.53214733709069
H        -1.88301920291407    2.84574804883156   -3.16624600191592
H        -2.38601067185605    1.17722016743238   -2.85202918812348
H        -1.96754068964191    2.22699050458064   -1.50117751182923
C         0.74658934004757    2.45098235652792   -1.94338484963635
O         0.82908431632915    1.92709394160447   -0.61142395862472
C         2.15239445854398    2.34196709281010   -2.54665668939279
H         2.47980920943859    1.30621065521399   -2.49720423092426
H         2.17563634816062    2.70362452495322   -3.57070218094180
H         2.83673846125391    2.93564734124636   -1.94501228201943
C         0.31877768377774    3.91681706921166   -1.90521022899032
H        -0.58868544674477    4.04866047673327   -1.32402430013374
H         1.10643598791487    4.50550470975635   -1.44100949206288
H         0.15798123705322    4.28280945819203   -2.91619964879204
B         1.57326654140925    0.62749471360574    1.89300087132562
O         2.93816289588291    0.78806060805349    1.85465280778982
C         3.31095685295670    2.03498580802884    2.45484382699975
C         4.57651023460860    1.84697900011819    3.29019423218711
H         4.45477700607455    1.03275818913442    3.99680687506404
H         5.40628269454629    1.60437641799421    2.63111081911679
H         4.81161677463128    2.76344529820733    3.82470225771679
C         3.59474489732207    3.00482060057509    1.30085082557162
H         3.86884906641638    3.99088765435233    1.66402642185736
H         4.41389190379204    2.60595833870680    0.70650167147621
H         2.71636899748266    3.06133486320113    0.66295701166927
C         2.03326527539924    2.42101045879140    3.27622038627800
O         1.01314362841917    1.61468437806262    2.67476534508620
C         1.63080848119819    3.89254008753082    3.18270403117622
H         1.38265541249856    4.15798411660337    2.16040859971653
H         0.75260156689861    4.06023478566727    3.80135486507943
H         2.43740935860633    4.52607267187329    3.54173696630583
C         2.11819051994762    2.01438660228946    4.75287251445026
H         2.34358626217472    0.95433337477109    4.83511879003189
H         2.86997158359785    2.59620850779028    5.27720330857550
H         1.15074338834691    2.18751040109686    5.21826426262782
B         2.27820000000063   -1.33090000000036    0.17409999999887
O         3.12179868006699   -2.28433193262595    0.70682451664844
C         4.39517401653925   -2.25113750544264    0.05206422322143
C         5.35019089483159   -1.50139154246471    0.98763696701475
H         4.92699051291347   -0.52709718393351    1.21564589597266
H         5.43018407344795   -2.05969474654189    1.91727610755313
H         6.33897183998817   -1.39882613755286    0.55126703651626
C         4.90175980973024   -3.67949247586751   -0.14863581382716
H         5.06342717101610   -4.13240620665977    0.82598059580619
H         5.84130102854610   -3.67002225494371   -0.69415317183396
H         4.17766701931074   -4.28463304048872   -0.68376164438433
C         4.08524340916168   -1.46267636832487   -1.26882191078378
O         2.84382190127320   -0.80819052249825   -0.96813686009823
C         5.12846980273312   -0.41193465132527   -1.64606756545679
H         6.10326188548688   -0.87512629147575   -1.77176467092212
H         4.83981253781351    0.05736203206078   -2.58334671384145
H         5.18123937075198    0.35811587844501   -0.88423307815087
C         3.83521420950095   -2.37717099672732   -2.47598471545841
H         3.06479661456874   -3.10660013966385   -2.24160712525110
H         3.47875838524053   -1.76929541137174   -3.30418250873032
H         4.74610835324655   -2.88588162195282   -2.77682183148826
H        -3.28526401792197   -3.72301851882645   -2.89156138997378
H        -5.00438273505933    1.84005767168013    0.84550750234055
C         0.23589999999911   -1.68139999999962    2.96029999999925
C        -0.99971555560469   -1.89913741907273    3.50366692107323
C         1.15344385679926   -1.71534399762455    4.05846489550792
N        -0.91602468359985   -2.01517295368585    4.87282414441580
H        -1.95754230717220   -1.98293221532040    3.02486034314850
C         2.54205147475839   -1.62480976570330    4.14706599783677
C         0.39244018854298   -1.90574352899322    5.24010525541297
H        -1.69282194444842   -2.14440385328934    5.49808375609711
C         3.12975093308717   -1.70241333283547    5.39140314782958
H         3.11615923583642   -1.49463886248056    3.24348934880930
C         0.99150665153779   -1.97588627395818    6.49271529996558
C         2.36459533029140   -1.86901864363857    6.55107180302391
H         4.20471337809757   -1.63432834326888    5.48587469758494
H         0.40266319165531   -2.11444048254685    7.38827841578010
H         2.86331392324316   -1.92046153199486    7.50853848984417
