93
 energy: -142.000875644115 gnorm: 0.000220738428 xtb: 6.4.1 (1a32961)
N        -0.93782256566495   -2.02337125570945   -0.35481243926270
C        -2.16467944945663   -1.51098418356182   -0.54914330250179
C        -3.03644274717092   -2.07075677514321   -1.48992080125547
C        -2.63846076697141   -3.16623385389732   -2.22657151739883
C        -1.36763802549324   -3.68872298666310   -2.00990727100730
C        -0.56251838166477   -3.07961009195146   -1.06886837440565
H         0.43209492034762   -3.45007575970761   -0.86468865550899
H        -1.01552553395416   -4.54654979005672   -2.55920048834237
H        -4.01685367185455   -1.65357354291360   -1.64893734769554
C        -2.52295353670981   -0.35634495627107    0.27164379508739
N        -1.57130060563582    0.11588850624285    1.10136776732773
C        -1.86032216427251    1.15182540567202    1.88344743226925
C        -3.09047229846373    1.78000749318017    1.89270444567931
C        -4.07931022351194    1.31293013257818    1.03422571536808
C        -3.78801562203102    0.23888248771566    0.21902359031231
H        -4.54439220344747   -0.13924720821677   -0.44797813193155
H        -3.27179811047859    2.60998286900356    2.55599651478850
H        -1.05570687251760    1.48844711166256    2.51909854201183
Ir        0.42150000000004   -0.81650000000010    0.91330000000012
H         0.87259999999998   -2.23030000000000    1.54049999999982
B         0.45931091588430    0.54544268753230   -0.65945254499938
O        -0.10694828975947    0.21310393727102   -1.87312499135442
C        -0.17863971983519    1.37186148875891   -2.71331586975144
C         0.18523238300267    0.98629612722525   -4.14470527065271
H         1.12935226933973    0.45249346778877   -4.16837142003726
H         0.24953412739759    1.87454887248667   -4.76747758178486
H        -0.58533460557643    0.33168352302038   -4.54452140848162
C        -1.63274119323950    1.86251396792117   -2.67387929089415
H        -1.77571575313304    2.71943633842236   -3.32517232581639
H        -2.28115626237807    1.05334621015550   -3.00411609380840
H        -1.91233530806326    2.12402451934232   -1.65518657426642
C         0.81694571101219    2.36021438368851   -2.01907341619356
O         0.87421100070983    1.85389134857323   -0.67653141391513
C         2.23720899882696    2.25883557798470   -2.58755709121686
H         2.57851753724058    1.22996835667599   -2.50516087177922
H         2.27716080476210    2.59617045640131   -3.61901714830060
H         2.89920420776545    2.87805508102855   -1.98695032933660
C         0.37370535205849    3.82161291023458   -2.00602425324621
H        -0.55105329538357    3.95012331159521   -1.45234869510220
H         1.14206386797449    4.42145322436000   -1.52451925194817
H         0.23915640330816    4.17749580282142   -3.02411286845340
B         1.59342817052608    0.63075448340302    1.86875840961304
O         2.96238557337593    0.72445612469134    1.91696518022538
C         3.34794605829617    2.00812750929328    2.43467069206691
C         4.57325576461273    1.86002397227830    3.33439066354907
H         4.40842041529763    1.11808011176868    4.10868417156222
H         5.42041083806763    1.53925516757345    2.73359185445907
H         4.81326619519567    2.81457926478426    3.79448547629939
C         3.70194913480014    2.87378166541728    1.22015740561868
H         3.99162641922110    3.87746871712286    1.51608595872022
H         4.53004078141679    2.40766676181619    0.69129532876982
H         2.84912518616577    2.90206666999821    0.54677493861828
C         2.04710986937630    2.49076738128282    3.16300697391507
O         1.02936654409796    1.67407138512691    2.56373350338618
C         1.69747695420043    3.96172515017530    2.94584439489162
H         1.49509198350680    4.15460508591779    1.89763706882372
H         0.80370994535776    4.20303124486642    3.51593728802915
H         2.51136312345247    4.59534675912954    3.28686798026329
C         2.04722705986752    2.19007389931988    4.66689557153672
H         2.25920087908883    1.13945973876975    4.84483779681902
H         2.77705710728788    2.80234172287087    5.18718190296069
H         1.05941947938528    2.40506172501408    5.06794132769609
B         2.27820000000012   -1.33090000000012    0.17409999999899
O         3.05912838002504   -2.35118921004506    0.67574649064589
C         4.36611415176734   -2.31658447488285    0.08465259619324
C         5.29309519528208   -1.67387096012463    1.12198025928993
H         4.89182804229074   -0.70345001983361    1.40013562264826
H         5.30259946162273   -2.30051031457828    2.01039976372514
H         6.30686208323342   -1.57795554557024    0.74640468675053
C         4.83434601086828   -3.74299424193104   -0.20072765860056
H         4.92699676755085   -4.27572896704995    0.74200938566387
H         5.80285947759627   -3.72632538938141   -0.69231039603359
H         4.12233372527021   -4.27757720266832   -0.82048228909272
C         4.14791196826393   -1.42091778605177   -1.18532688269376
O         2.91132012837157   -0.74817821352666   -0.89542123946472
C         5.23931344981242   -0.38030527453302   -1.42830277080911
H         6.20370198811886   -0.86605144948864   -1.54702812148018
H         5.01027025912205    0.17248957373365   -2.33579144040356
H         5.27985322816891    0.32305332287723   -0.60414393612367
C         3.92979079323279   -2.23024396989400   -2.47049469673934
H         3.12032992736491   -2.94201410636330   -2.33375096067664
H         3.64327019588064   -1.54687890053503   -3.26637623353011
H         4.83615467364174   -2.75181296715748   -2.76199729865279
H        -3.30146336354057   -3.60651907759410   -2.95557524832950
H        -5.05440219057435    1.77490393917151    1.00592608178763
C         0.23590000000006   -1.68140000000001    2.96029999999947
C        -0.94063086793420   -2.08724634869777    3.50340267571875
C         1.21864547609751   -1.50404349907661    3.97781255790678
S        -0.92629316191459   -2.19377724506745    5.25957666420184
Cl       -2.38840022222511   -2.52832008360156    2.69323356698254
C         0.74265753303524   -1.71910167577205    5.22683104336466
H         2.23490418241410   -1.23436622547867    3.75688620878505
Br        1.69890607117184   -1.55308107182710    6.83628100244360
