17
 energy: -33.848720939774 gnorm: 0.000323028482 xtb: 6.4.1 (1a32961)
C         1.25427833049337    1.21481647730019   -0.00651461626121
C        -0.14015040412492    1.28158155938743   -0.01877939105474
C        -0.78967184046728    2.61927283707817   -0.03448671330286
O        -0.15955097933956    3.65426792856774   -0.03074814177289
O        -2.11407651553560    2.55987367699642   -0.05350403403843
C        -2.81832531303469    3.80074530411089   -0.07195383345858
C        -0.81387956076179    0.05673254521828   -0.01823643741442
F        -2.15329706922134    0.01058826235575   -0.02871043950549
N        -0.22776271320426   -1.11459632340479   -0.00823639652443
C         1.09665535502818   -1.15729233987075    0.00242710167227
C         1.88587685358337   -0.01686789346222    0.00437694705731
H         1.80799222047706    2.14168740049739   -0.00604489660813
H        -3.87213505961004    3.53824524498221   -0.07770257296214
H        -2.55153137618575    4.36938641470636   -0.96464941705181
H        -2.56559678796737    4.38828700265465    0.81248726666028
H         1.52185726211116   -2.15029357911455    0.01010209062448
H         2.96042759775946   -0.08901451800318    0.01415348394080
