106
 energy: -152.879050890211 gnorm: 0.000584360185 xtb: 6.4.0 (f63f532)
N        -0.96510000000000   -2.11529999999999   -0.24090000000001
C        -2.24699999999995   -1.69840000000001   -0.36219999999998
C        -3.14040000000000   -2.36820000000000   -1.21200000000001
C        -2.70220000000004   -3.47560000000001   -1.93050000000003
C        -1.37780000000006   -3.89880000000002   -1.78760000000002
C        -0.54290000000001   -3.18670000000002   -0.93510000000001
H         0.49809999999997   -3.45630000000000   -0.78940000000000
H        -0.99570000000001   -4.76030000000000   -2.32770000000000
H        -4.16500000000000   -2.02890000000001   -1.31830000000000
C        -2.62129999999999   -0.50949999999999    0.44099999999998
N        -1.62599999999999    0.07330000000001    1.16019999999999
C        -1.89680000000001    1.15240000000000    1.91690000000000
C        -3.17230000000000    1.70329999999996    1.99650000000001
C        -4.20510000000001    1.11740000000003    1.26270000000005
C        -3.92610000000000    0.00250000000001    0.47820000000001
H        -4.71959999999999   -0.46420000000000   -0.09520000000001
H        -3.34630000000000    2.57510000000001    2.62069999999999
H        -1.04449999999999    1.57420000000000    2.43690000000001
Ir        0.42150000000000   -0.81650000000000    0.91330000000000
H         0.87260000000000   -2.23030000000000    1.54050000000000
B         0.50670000000000    0.41560000000001   -0.81539999999999
O         0.19499999999999   -0.04699999999999   -2.09150000000000
C         0.00650000000003    1.10040000000000   -2.95430000000000
C         0.49019999999990    0.74740000000000   -4.35780000000000
H         1.51610000000000    0.37380000000000   -4.33700000000000
H         0.44730000000001    1.62240000000000   -5.01670000000000
H        -0.14740000000001   -0.03389999999999   -4.78429999999999
C        -1.50120000000001    1.39560000000001   -2.96669999999999
H        -1.75370000000000    2.21460000000000   -3.64850000000000
H        -2.03200000000001    0.49450000000000   -3.28930000000000
H        -1.85170000000001    1.65210000000000   -1.96220000000004
C         0.84229999999997    2.20670000000000   -2.22039999999999
O         0.75200000000000    1.78260000000000   -0.83690000000000
C         2.32929999999997    2.18619999999999   -2.59900000000001
H         2.74130000000000    1.18500000000000   -2.45750000000000
H         2.48869999999999    2.51300000000001   -3.63180000000000
H         2.87200000000000    2.86270000000000   -1.93200000000000
C         0.28439999999998    3.62290000000000   -2.33659999999999
H        -0.72649999999997    3.69040000000000   -1.92910000000000
H         0.92130000000000    4.31480000000000   -1.77610000000000
H         0.26430000000000    3.94810000000000   -3.38320000000000
B         1.56300000000000    0.60960000000000    1.84840000000000
O         2.92780000000000    0.55230000000000    2.15020000000001
C         3.36329999999998    1.88660000000001    2.50259999999995
C         4.53140000000004    1.78590000000000    3.47739999999997
H         4.27910000000000    1.16090000000000    4.33689999999999
H         5.39390000000004    1.33790000000000    2.97340000000001
H         4.82390000000001    2.77870000000000    3.83820000000001
C         3.79700000000000    2.56850000000000    1.19670000000000
H         4.20020000000000    3.57090000000000    1.37680000000000
H         4.56740000000000    1.95560000000000    0.72109999999999
H         2.95240000000001    2.63260000000000    0.50540000000000
C         2.05040000000000    2.50090000000000    3.09320000000001
O         1.03749999999999    1.81620000000001    2.31910000000000
C         1.89099999999998    4.00450000000000    2.88649999999998
H         1.87290000000000    4.25440000000000    1.82410000000002
H         0.94940000000000    4.34260000000000    3.33170000000001
H         2.71080000000002    4.55150000000000    3.36630000000000
C         1.82470000000003    2.13200000000000    4.56520000000000
H         1.92610000000001    1.05330000000000    4.71320000000000
H         2.52610000000001    2.65279999999999    5.22539999999999
H         0.80630000000003    2.41580000000001    4.84900000000000
B         2.27819999999999   -1.33089999999999    0.17409999999998
O         2.89460000000000   -2.57740000000000    0.38450000000001
C         4.26930000000001   -2.48200000000000   -0.07209999999993
C         5.10899999999999   -2.05380000000000    1.14009999999996
H         4.76350000000000   -1.08740000000001    1.51749999999999
H         4.98050000000000   -2.79470000000000    1.93590000000000
H         6.17420000000001   -1.99290000000000    0.89300000000000
C         4.71950000000004   -3.84659999999998   -0.58469999999998
H         4.75280000000000   -4.56129999999997    0.24419999999998
H         5.72329999999999   -3.78370000000000   -1.02010000000000
H         4.03500000000001   -4.23600000000000   -1.34169999999997
C         4.16440000000003   -1.36219999999999   -1.16299999999996
O         3.08520000000002   -0.55030000000001   -0.65400000000001
C         5.40720000000004   -0.48870000000001   -1.31549999999995
H         6.27320000000001   -1.09009999999999   -1.61530000000000
H         5.23300000000000    0.26930000000003   -2.08590000000003
H         5.64270000000001    0.02650000000000   -0.38240000000001
C         3.71800000000003   -1.89830000000001   -2.53109999999999
H         2.82529999999995   -2.52160000000002   -2.42740000000000
H         3.46089999999998   -1.05249999999999   -3.17550000000000
H         4.50570000000001   -2.48290000000000   -3.01790000000001
H        -3.38499999999999   -4.00129999999998   -2.59310000000005
H        -5.21399999999998    1.52080000000001    1.29959999999999
C         0.23590000000000   -1.68140000000000    2.96030000000000
C        -0.87313565856322   -2.31278962558325    3.47736071996208
C         1.13649044343114   -1.54417493992046    4.04698063495284
N        -0.69843717397643   -2.52118786316507    4.81711864801357
H        -1.77679229528510   -2.63985014011763    2.99094159853525
C         0.53075993591275   -2.04375376527263    5.16850180730474
H         2.12889657277077   -1.13438667051578    3.98217971537896
C        -1.59438218168333   -3.22455749089580    5.70696535621744
H         0.87615093805695   -2.10882438698022    6.18621894093231
C        -2.31959002164979   -2.30434716076612    6.65550357332460
H        -2.32499314875255   -3.76781764000410    5.09876225743436
H        -1.02845437392321   -3.94814148930811    6.30306181989396
N        -2.30931084482477   -2.66279219653398    7.94204252612788
C        -2.96526625524307   -1.15758066940035    6.20369480628035
C        -2.95113093818353   -1.89222682628191    8.81623861969368
C        -3.63537487202631   -0.36563288592201    7.12380020269050
H        -2.93259850052771   -0.89980266598903    5.15393916729167
C        -3.63229595524821   -0.74071482085581    8.45999552741551
H        -2.90550122729814   -2.22997077173167    9.84484893875803
H        -4.15508562349265    0.52784974169433    6.80323351135431
H        -4.14456542222687   -0.15213929261107    9.20722287175876
