106
 energy: -152.892964049746 gnorm: 0.000224167210 xtb: 6.4.0 (f63f532)
N        -0.82257493314392   -1.98510065727907   -0.48570535586088
C        -2.07839025082274   -1.52651937332430   -0.66302170748820
C        -2.86119683244407   -1.96293145247989   -1.73978630434527
C        -2.35329459308456   -2.88329401754012   -2.62846156407928
C        -1.06012738340456   -3.36211308782158   -2.42377356397765
C        -0.34598141476593   -2.87983679272199   -1.34870207438199
H         0.66189140615430   -3.21920169900903   -1.15523125635333
H        -0.62398747147517   -4.08767477741725   -3.09128632224888
H        -3.85391713583792   -1.57012208874998   -1.88923693977460
C        -2.54408967745380   -0.54599100888757    0.30509893643260
N        -1.62378236196591   -0.07647049489105    1.17670733392461
C        -2.00253715940118    0.83184829303657    2.07432495496314
C        -3.28879938131907    1.31854761989074    2.17149856900659
C        -4.25274893010996    0.83522234911781    1.28773631638235
C        -3.87171832166355   -0.09899223322469    0.35065726638736
H        -4.60287632024365   -0.49322447421671   -0.33595370471790
H        -3.54091308246959    2.05106527220204    2.92113471368286
H        -1.21800869854118    1.17936779641677    2.72956779990908
Ir        0.42150000000011   -0.81650000000008    0.91329999999999
H         0.87260000000014   -2.23030000000008    1.54050000000000
B         0.39328410381443    0.66857783911122   -0.55776482049580
O        -0.25754463823868    0.42861370824573   -1.75817108041377
C        -0.41565044764256    1.65007714377103   -2.48400659203352
C        -0.19801860621545    1.39994552038878   -3.97418872768207
H         0.74054813238983    0.88291284276624   -4.14445318436020
H        -0.20016262633433    2.34280921071787   -4.51523588957762
H        -1.00353966736974    0.77482048721580   -4.35287971157631
C        -1.86029476140159    2.12030528725371   -2.25627836822152
H        -2.07466296147153    3.02437475577441   -2.81856899070547
H        -2.53708366849671    1.33150898791736   -2.57961308181422
H        -2.03205539502807    2.29620934523389   -1.19608462928235
C         0.63808973181026    2.58586338333332   -1.80746847643068
O         0.80303753129680    1.98383683746759   -0.51758375987429
C         2.00522447690261    2.52747718349940   -2.50032090695292
H         2.33669858147700    1.49277272280308   -2.54791108943051
H         1.96603152979717    2.96238462252835   -3.49503180569499
H         2.72452038145431    3.07918447358453   -1.89921731629826
C         0.20339018353953    4.04231613171724   -1.65454022496698
H        -0.66146050178486    4.12832788222631   -1.00375194024164
H         1.01730892406401    4.61295677520369   -1.21373464087535
H        -0.03225717896837    4.46405871540159   -2.62848930381327
B         1.49848794978188    0.65163898281899    1.93147577119971
O         2.85905103658467    0.84436140989971    1.97374297003921
C         3.16044994901153    2.10898779456597    2.57936627405284
C         4.39382063873384    1.97550040836563    3.47122633389146
H         4.27612497902376    1.16174989723420    4.17891518551895
H         5.26015447416569    1.76103244721793    2.85081922872979
H         4.56869819826289    2.90390991840337    4.00841432531358
C         3.45829043070036    3.08231848382964    1.43213409397484
H         3.68377394755104    4.07875763931981    1.80054369675455
H         4.31398866476943    2.70904530910272    0.87381932772884
H         2.60476152430708    3.10539054565727    0.75945344258819
C         1.83354510931584    2.45421543600257    3.33739251756951
O         0.86858152426652    1.62848638087618    2.67570222261783
C         1.40019112208776    3.91639262617530    3.24024928733351
H         1.18962470922829    4.18444541717656    2.21036034570523
H         0.49251703229101    4.05873553065907    3.82165029991857
H         2.17555643168378    4.56569999494637    3.63793431838599
C         1.85357136764727    2.03000573279130    4.81206801302396
H         2.10616054552970    0.97642758635747    4.89170734078649
H         2.55723063701709    2.62763145242901    5.38325744959979
H         0.85725395083402    2.16468685500593    5.22695619416344
B         2.27819999999942   -1.33089999999913    0.17410000000181
O         3.15761976256313   -2.24941032286674    0.70975295242009
C         4.44084287916284   -2.13409514300686    0.08421731250312
C         5.32503532299669   -1.33739885980242    1.05042609570382
H         4.83360707356173   -0.39647014590564    1.28168169462265
H         5.41759419667518   -1.90121780743452    1.97525056332738
H         6.31485960109476   -1.16628813548517    0.63858728178002
C         5.04013444461641   -3.52582550027674   -0.11799959165463
H         5.20695975679639   -3.97869569237588    0.85567242671029
H         5.99002618222654   -3.45077979305934   -0.64015021685424
H         4.36888206125083   -4.16935262241737   -0.67675984154793
C         4.11653397333591   -1.35139328939696   -1.23721030082045
O         2.82969675950210   -0.78000286004954   -0.96311904966839
C         5.09587372132786   -0.22688121685366   -1.57207349793594
H         6.10378048987519   -0.61877324692671   -1.67703776786115
H         4.79903934046448    0.23512886056939   -2.51050015120271
H         5.07325942674538    0.53357944866557   -0.79903704904693
C         3.96306119376741   -2.26288249963100   -2.46255501690466
H         3.24367166491052   -3.05108953806095   -2.25849611997944
H         3.58418938392136   -1.66948999343128   -3.29142827517050
H         4.91621550751678   -2.69913914585986   -2.74616152985412
H        -2.94218564277510   -3.22274170968763   -3.46717470576973
H        -5.27372660308214    1.18251690187358    1.33683913140017
C         0.23590000000255   -1.68140000000218    2.96030000000099
C        -0.97101103643236   -2.07509131168179    3.48810813250924
C         1.13062399921593   -1.59858439791804    4.05639686521992
N        -0.85348293433819   -2.19350350407936    4.84246875986104
H        -1.90690951721715   -2.28806182490473    3.00702050851852
C         0.42766660289840   -1.89465117946671    5.19155513724191
H         2.17200195683274   -1.35472723781955    3.98767844924617
C        -1.90722184176409   -2.51984447840137    5.75964604038295
H         0.73767198096303   -1.92503010706101    6.21838295112419
C        -2.40177133152983   -1.32461902165910    6.54198314516049
H        -2.74505653187147   -2.94118118041746    5.19446226890996
H        -1.56944077563350   -3.27680524935128    6.47433499178215
N        -2.89923654466923   -1.58922648033073    7.74388312777543
C        -2.34234495777840   -0.03481033053705    6.02353295202162
C        -3.35899755887519   -0.58729101290992    8.47435436275083
C        -2.82168538649217    1.00886869353570    6.79701467299495
H        -1.92441004822661    0.13900411186932    5.04365191323739
C        -3.34453911376744    0.73258706713849    8.05172592193597
H        -3.75143719696429   -0.86495046462771    9.44396252825515
H        -2.78807065895497    2.02328830909607    6.42777657680777
H        -3.72602842583865    1.51759890054490    8.68517272187588
