102
 energy: -147.625726287392 gnorm: 0.000220003980 xtb: 6.4.1 (1a32961)
N        -0.89861196471336   -2.00359973880363   -0.42679300228650
C        -2.14649303318033   -1.52178607751964   -0.58675096529901
C        -2.97115249527263   -1.98531629713859   -1.61963328995575
C        -2.50954814644645   -2.95368137535342   -2.48343023257509
C        -1.22121937487472   -3.45081536689229   -2.29940049211945
C        -0.46505121816964   -2.94107888309267   -1.26517287542819
H         0.54074548721652   -3.29395300773575   -1.08573634893478
H        -0.82030262547250   -4.21165859437941   -2.94926552677945
H        -3.96056851337608   -1.57999454326638   -1.75543294088290
C        -2.56350450542123   -0.48952377114440    0.35322950310002
N        -1.61516354012818   -0.01997529015343    1.19218570728013
C        -1.94771710357594    0.92823431086150    2.06478581219446
C        -3.21704955813080    1.45960841507636    2.16622715456265
C        -4.20874884780652    0.98115477596827    1.31262786803319
C        -3.87391233644108    0.00351271796459    0.40119860405191
H        -4.62873721127926   -0.38579333546362   -0.26207750724846
H        -3.43094135745653    2.22150828656004    2.89834183789538
H        -1.14453047702889    1.26931366738650    2.69949977906954
Ir        0.42149999999996   -0.81650000000047    0.91329999999954
H         0.87259999999993   -2.23029999999999    1.54050000000011
B         0.37210598682704    0.64124627248814   -0.58350027903978
O        -0.32686361212054    0.39306031015373   -1.75430343576376
C        -0.46904056947069    1.60227429803333   -2.50569493207698
C        -0.31188085056107    1.30742701933230   -3.99513515984924
H         0.60209774758881    0.75416654640283   -4.18385168365249
H        -0.30099568962190    2.23579181332616   -4.56041062299669
H        -1.15099978116524    0.70157070424664   -4.32908458657808
C        -1.88754523562216    2.12846094612419   -2.24048000331659
H        -2.08897833471327    3.02712679859672   -2.81595779441868
H        -2.60246993764606    1.35791511415632   -2.52304853270012
H        -2.01610125988431    2.33394262537868   -1.17947938293565
C         0.63903337000348    2.51630521726068   -1.88922985740210
O         0.82546437230583    1.94118636283612   -0.58934744019721
C         1.97926716069573    2.38935939268943   -2.62380544071692
H         2.27264244390500    1.34255677025538   -2.65105894655372
H         1.92207495491927    2.79749180572803   -3.62882464365914
H         2.73663782083740    2.93135718465005   -2.06225317849159
C         0.26222924163686    3.99090194106938   -1.76070769344487
H        -0.57519068449526    4.12479061653979   -1.08286335776867
H         1.11119823495456    4.54236788868853   -1.36382235032266
H         0.00741971851851    4.39621602237947   -2.73673272513133
B         1.54342109095215    0.66493725845580    1.86045460502576
O         2.90795272127949    0.82638477174338    1.87230929871036
C         3.24993241996731    2.10208045873535    2.43292883427797
C         4.49200055539957    1.96480644724561    3.31214340662148
H         4.36331833004380    1.18006884791442    4.05007692784394
H         5.34338875166311    1.70574882757801    2.68798412412783
H         4.69956228418654    2.90613695787268    3.81378416521565
C         3.55761333249231    3.02856073525866    1.25032046412173
H         3.81104556933428    4.03080488581165    1.58273681569799
H         4.39784664225814    2.61618331870363    0.69608637465962
H         2.69708600317222    3.04940203205352    0.58672895286378
C         1.94238763863048    2.50553806197614    3.19717001549446
O         0.94837275845976    1.67416833463484    2.58417180603966
C         1.53647960040891    3.97077188389442    3.04557361508331
H         1.32030997679361    4.20186306988303    2.00792800430243
H         0.63799901835684    4.15300454103431    3.63016799892885
H         2.32842508040101    4.61949151694458    3.40994748692458
C         1.97893512348472    2.14357996732994    4.68752484118190
H         2.21000277650670    1.08913167682167    4.80898867676850
H         2.70610164986797    2.74894255354749    5.21982425762532
H         0.99409514500372    2.31817914042473    5.11461244383721
B         2.27820000000148   -1.33090000000172    0.17410000000113
O         3.15381442210982   -2.24146639838135    0.72578086716344
C         4.42400583257185   -2.17713471369524    0.06539656282067
C         5.35415570336644   -1.38019738048140    0.98650478398359
H         4.89396371423302   -0.42093616097600    1.20528690938736
H         5.45755889546747   -1.92257911147070    1.92297361478201
H         6.33636985829916   -1.24591385070927    0.54412886117321
C         4.97864064581254   -3.59066919185940   -0.11258298232872
H         5.15765539543093   -4.02156315458742    0.86888004392293
H         5.91643161439187   -3.55763790336166   -0.66014336611242
H         4.27513180484156   -4.22946109492358   -0.63592147116449
C         4.08607456775061   -1.42339825353062   -1.27002490699562
O         2.81554507170008   -0.81971744435908   -0.98619155751046
C         5.08002155954767   -0.32909218808815   -1.65692014808354
H         6.07545678906959   -0.74660444263534   -1.78026828088061
H         4.76731228184766    0.11835274041267   -2.59710484642770
H         5.09638542703852    0.44880648322689   -0.90149488352524
C         3.88644188273421   -2.36393551065514   -2.46642744467720
H         3.15201081137045   -3.12785420781557   -2.22691858742986
H         3.50567031314303   -1.78398761046339   -3.30374148823903
H         4.82268868625325   -2.83124164670154   -2.75612419751303
H        -3.13272085902151   -3.31612574116433   -3.28689333188027
H        -5.21686722529444    1.36413082625734    1.36372170766131
C         0.23589999999563   -1.68140000000207    2.96029999999838
C        -1.03221767307359   -2.10574167875962    3.33250753868854
C         1.22239058673286   -1.49934396601314    3.94454425854442
C        -1.30172234345555   -2.23491147334044    4.68638409412055
H        -1.79690773305008   -2.33782881496342    2.60426266484644
C         0.96365451479438   -1.63213551728513    5.29295475291872
H         2.22134580895148   -1.25399883649298    3.61725596259178
C        -0.32406600032608   -1.99350213710243    5.67671591287959
N        -2.42768158743786   -2.60698850695304    5.38264445762321
H         1.73117494132113   -1.48184012975543    6.03685024833134
N        -0.86731315931257   -2.21539825750165    6.92172244889377
C        -2.10117650214286   -2.57466199484021    6.71354301774067
H        -3.32007676956704   -2.85658170290119    4.99163510365311
C        -3.08211408640659   -2.92655340670724    7.76952107511302
H        -2.60876144343190   -2.82117902864831    8.74016123447982
H        -3.41906708990705   -3.95484189482021    7.64481956221604
H        -3.94902339195939   -2.26927121328571    7.71780820825088
