96
 energy: -144.716230348031 gnorm: 0.000262432556 xtb: 6.4.1 (1a32961)
N        -0.97077072239635   -2.00885739846576   -0.34335358053963
C        -2.19827558226214   -1.48932175241941   -0.52516917874286
C        -3.09076616978228   -2.05768229136567   -1.44272783356505
C        -2.70846694220264   -3.15726214223506   -2.18009566216591
C        -1.43190504727007   -3.67797433395684   -1.98734064651947
C        -0.61113495352432   -3.06899301973088   -1.06060215493683
H         0.38509751331402   -3.44290177660940   -0.87093710969789
H        -1.08983045331581   -4.53635994487446   -2.54198310732499
H        -4.07596659643574   -1.64395475988123   -1.57977954447356
C        -2.52702663485371   -0.31152111000471    0.27093274298060
N        -1.57402471734005    0.12824471704135    1.11894450196244
C        -1.82921614412851    1.19853433557411    1.86813001452195
C        -3.01913093657258    1.89581264906584    1.81946494165759
C        -4.00597565669677    1.46517933187342    0.93744403499490
C        -3.75324237520473    0.35497521074700    0.16014048326686
H        -4.50537228093665    0.00954691982566   -0.52923899819358
H        -3.17482920679949    2.75172265155145    2.45574852325935
H        -1.03020876797101    1.49839770022268    2.52881601249354
Ir        0.42149999999999   -0.81650000000005    0.91329999999982
H         0.87260000000008   -2.23030000000023    1.54049999999996
B         0.39508362418703    0.58570076803662   -0.62538151148134
O        -0.13060105399269    0.25101917451500   -1.85673436454096
C        -0.22624631831112    1.41792252785931   -2.68293151596157
C         0.18582400638535    1.06862110515187   -4.11047336142321
H         1.14830564197889    0.56818251717071   -4.11793621409755
H         0.23540963303279    1.96898108113255   -4.71730495218041
H        -0.55128372274789    0.39476675009531   -4.54028369433707
C        -1.69694591664136    1.85841380297642   -2.67255499037458
H        -1.85401329730769    2.71337401590190   -3.32344756024812
H        -2.31083202313082    1.02989830070892   -3.02029815767100
H        -2.00742567303152    2.10658452937982   -1.65944024227177
C         0.71512700882096    2.43006121146530   -1.95114950454556
O         0.73743850341487    1.91869212779114   -0.61036961568010
C         2.15636728777462    2.36567899101332   -2.47059918819766
H         2.51726298590080    1.34323836416051   -2.38812127395600
H         2.22462330531651    2.71662472263657   -3.49613618000076
H         2.78365802226450    2.99074470047541   -1.83991206681837
C         0.23409162904076    3.87934427596698   -1.95143306222861
H        -0.71287992596311    3.98260001584225   -1.43071785161192
H         0.96939284059301    4.49852739143000   -1.44326978561267
H         0.12594601501180    4.23333495582103   -2.97340192685036
B         1.60802744921098    0.64977801138888    1.82901409392638
O         2.91448971241087    0.99256102920313    1.60300004989637
C         3.25611768449350    2.19742589796605    2.30450766174232
C         4.60144190072296    2.00592274924183    3.00695442470641
H         4.59007677838625    1.12261879876827    3.63732378676413
H         5.37685036980604    1.87444818658023    2.25627288730434
H         4.84082922206973    2.87975425218016    3.60595900672830
C         3.39294772559548    3.29464288318527    1.24298129490764
H         3.61175807978957    4.25850620663991    1.69222045916976
H         4.20481645834350    3.02440836973059    0.57150339805294
H         2.47793926277174    3.34411325910087    0.65945360281831
C         2.03553502789455    2.41111116272688    3.27355981258093
O         1.06374092515834    1.47493547708528    2.78589028082101
C         1.42162319098117    3.81166860631468    3.22845224577728
H         1.05184018120603    4.03770190830335    2.23365677903373
H         0.58379829385366    3.84945541702738    3.92056838517689
H         2.15393391315365    4.55637001686695    3.52674183400179
C         2.32806031269552    2.04957110183938    4.73484261250708
H         2.71112324230069    1.03679532029992    4.80988477664582
H         3.03902086636467    2.74490384133808    5.16997845788358
H         1.39741564468069    2.09791006965610    5.29551412266865
B         2.27819999999994   -1.33089999999862    0.17410000000023
O         3.11880274386980   -2.27912471490163    0.71717728078504
C         4.39482323978894   -2.24633808530294    0.06411142139323
C         5.33873657960248   -1.46847438518160    0.98734526719821
H         4.92115132373543   -0.48257729942314    1.17239606545784
H         5.39845967523120   -1.99026426438404    1.93977315214634
H         6.33475601245938   -1.38867333384939    0.56344297962326
C         4.91386825025237   -3.67305794594279   -0.10867808068042
H         5.08736359245154   -4.10271524179319    0.87441484914523
H         5.84938577272294   -3.66548801993566   -0.66072006020804
H         4.19222652805085   -4.29660156366391   -0.62580199117090
C         4.07794678095619   -1.48418016964501   -1.26975086111852
O         2.83830375067188   -0.82095035999636   -0.97292929798727
C         5.12006745280233   -0.44303155716885   -1.67344181212259
H         6.09553581767270   -0.90854190699052   -1.78290076717503
H         4.83339404522973   -0.00050519585252   -2.62414963233650
H         5.16961333023932    0.34717380937592   -0.93229575316338
C         3.81623492254168   -2.42365824804860   -2.45438656127361
H         3.05135269514902   -3.15055102905484   -2.19532018610148
H         3.44809052840325   -1.83450332996711   -3.29076771168737
H         4.72559121360407   -2.93541245435172   -2.75417737273361
H        -3.38619848984782   -3.60266025958702   -2.89232773116127
H        -4.94853207535458    1.98581100937698    0.86200666494821
C         0.23590000000099   -1.68140000000246    2.96029999999845
C        -1.08365943742205   -1.98718556370164    3.29928196045655
C         1.14804446702087   -1.62854874279436    4.01459296781107
C        -1.45665583814316   -2.10902007399731    4.62269293077975
H        -1.83812722795866   -2.13133149790479    2.54113222955170
C         0.77002753797286   -1.76023633227279    5.34206936890421
Cl        2.82338518183155   -1.41409659735376    3.66590730236716
C        -0.55705434120401   -1.98829691028883    5.66413061745358
F        -2.76687162850691   -2.36965599232620    4.90737563506137
H         1.51578022817424   -1.69309514247109    6.11686806404032
H        -0.88339399458489   -2.08901678889948    6.68587818365953
