105
 energy: -151.593060957925 gnorm: 0.000387566027 xtb: 6.4.1 (1a32961)
N        -0.91150336460413   -1.95306224115056   -0.44417311192112
C        -2.16206624166658   -1.46867942517939   -0.57924355648596
C        -3.01821954163007   -1.95559532853775   -1.57554350531624
C        -2.58460796781848   -2.94288237870908   -2.43208299969877
C        -1.29015858675799   -3.43549810724264   -2.27925204698828
C        -0.50408330608123   -2.90738499685640   -1.27745596161478
H         0.50560951486879   -3.25948137710908   -1.11983545563646
H        -0.90919207975621   -4.20966723749424   -2.92527191356385
H        -4.01404196983524   -1.55867616337677   -1.68528478662041
C        -2.54993946919615   -0.41729889398598    0.35108414430119
N        -1.59487433554361    0.01708294600817    1.20120984254694
C        -1.90303496076030    0.97581736381956    2.07169075845444
C        -3.15161408977205    1.55623203737693    2.15644095091330
C        -4.14740988385740    1.12177008821969    1.28459274826542
C        -3.83871927923244    0.13164088236437    0.37795870732165
H        -4.59772112170887   -0.22032430147557   -0.30097970424355
H        -3.34696902118635    2.32333553248588    2.88826582963886
H        -1.09656796096808    1.28565988873389    2.71822943728512
Ir        0.42149999999999   -0.81649999999987    0.91329999999965
H         0.87260000000002   -2.23029999999990    1.54050000000015
B         0.40505104413574    0.69894518382089   -0.53048968826210
O        -0.39208312671157    0.58254802259395   -1.65892148321415
C        -0.47969091306395    1.84600108239279   -2.32627009955431
C        -0.46202651571070    1.63794581223124   -3.83857625500851
H         0.38499632555453    1.02848919340144   -4.13556412596880
H        -0.41723410093010    2.59811651743992   -4.34654624601244
H        -1.37233924398305    1.12408163668499   -4.13854099266361
C        -1.82073906404069    2.47381239561101   -1.91832128979080
H        -1.98106687783270    3.42246454932041   -2.42203064756599
H        -2.62204334340035    1.78850405298466   -2.18814564239290
H        -1.85157675916673    2.61920230462129   -0.84021212471685
C         0.74875026422941    2.62138269325388   -1.74838686877220
O         0.98068394501498    1.94825609310986   -0.50474156486653
C         2.01358152691227    2.43480819456186   -2.59533643665989
H         2.21235089236446    1.37212449126828   -2.71164764606004
H         1.91646773042598    2.91411389508258   -3.56528590705083
H         2.85548082597607    2.87315984968493   -2.06440961914542
C         0.51509984265003    4.11041126441922   -1.49968707002333
H        -0.24966047757076    4.26700730737902   -0.74509317048181
H         1.43884602858011    4.56137029339415   -1.14466654900919
H         0.21960963855959    4.60116678442107   -2.42356333886049
B         1.56825427593878    0.62378911161922    1.89791164209527
O         2.93244701692117    0.73906054541054    1.92320810792685
C         3.32499027596149    1.97383681162737    2.53723981850312
C         4.48172457133842    1.70939417243646    3.50045259147053
H         4.21643249696181    0.92976288326599    4.20671039133504
H         5.34702735840159    1.37557283227578    2.93315003262689
H         4.74218738505681    2.61890716465931    4.03502398522050
C         3.79686622869747    2.89041485728678    1.40162839522694
H         4.07585865595319    3.87346901466109    1.76873320096248
H         4.66162947141994    2.43410839174951    0.92502018823489
H         3.00736075345122    2.96908155740181    0.65906855528385
C         2.00132889272622    2.46593178578563    3.22502342391917
O         0.99535168619978    1.64247926734027    2.62166416681647
C         1.65198309834203    3.93171125311409    2.96184487280897
H         1.49278408944492    4.09898853400624    1.90165118798035
H         0.73177781650643    4.17599622310686    3.48713938880234
H         2.44372115435850    4.58177013817336    3.32348934033202
C         1.96071757449947    2.20368744374348    4.73520637465402
H         2.16630162745315    1.15802861641583    4.94896334365674
H         2.67677893103918    2.83215092660026    5.25619286852015
H         0.96227505048965    2.43347786686264    5.10109633336090
B         2.27820000000010   -1.33090000000036    0.17409999999978
O         3.16385743673934   -2.22922924608522    0.72826124710863
C         4.41327935506293   -2.19660000328792    0.02755391301725
C         5.37824456508646   -1.37698200201283    0.89049343104068
H         4.93230685665981   -0.40691818244707    1.08903600634337
H         5.50519419699795   -1.88570812035217    1.84284581646221
H         6.34733697153463   -1.26765615966467    0.41333538965448
C         4.95057656248529   -3.62043798848718   -0.12027660848879
H         5.16184084782389   -4.01792853447784    0.86885850866605
H         5.86793461664184   -3.61569411394732   -0.70237457029258
H         4.22320686615415   -4.27079838360777   -0.59452674586821
C         4.03898385004527   -1.48538483334895   -1.32134673337047
O         2.78549027866501   -0.85724024765240   -1.01597127975780
C         5.03153265362676   -0.41891918140183   -1.78224356563455
H         6.01745363466355   -0.85344017093064   -1.92260083627772
H         4.69260073797728   -0.00422391967767   -2.72831397740192
H         5.08247815830099    0.38749135673928   -1.05901234071562
C         3.78720308417526   -2.46551535617277   -2.47569787189252
H         3.05442587234345   -3.21224689329395   -2.18286538438224
H         3.38278825741793   -1.91185282182808   -3.31965952366746
H         4.70769497636359   -2.95362847499665   -2.78117350772288
H        -3.23398047466019   -3.32401110942236   -3.20556145650433
H        -5.13871890331205    1.54806466077990    1.31811958138910
C         0.23590000000144   -1.68139999999901    2.96029999999943
C        -1.03873454346724   -2.06147037601108    3.37240969310241
C         1.22805811546735   -1.56042134270473    3.92883384731061
C        -1.33210679114761   -2.20769291931604    4.72054169075463
H        -1.82173434500312   -2.24640893604782    2.64995767921516
C         0.95395644255621   -1.74076547155805    5.28277886016535
H         2.24229447382339   -1.34497145165125    3.63080990227743
C        -0.34945001411191   -2.04484290327754    5.67772442435950
H        -2.33818728485885   -2.46451525125629    5.02368503581884
C         2.05010044513572   -1.65273620214418    6.25857756926380
H        -0.59400937996323   -2.14945846294961    6.72464836257734
N         3.04622935415112   -0.81229250265240    5.97694856100387
C         2.06982770517317   -2.44460601657297    7.41094692047176
C         4.06455549475102   -0.72325347468914    6.81263185026770
C         3.14099075583281   -2.34544993939319    8.27952773907223
H         1.26829555905966   -3.13971737521977    7.60501065490925
C         4.16774018959816   -1.46146969913637    7.98106622479971
H         4.83792840726123   -0.02144005621828    6.52609178483047
H         3.17909510968768   -2.95207952815995    9.17323821011396
H         5.02249329821379   -1.35262904150928    8.62984546686229
