93
 energy: -134.830274246690 gnorm: 0.000393529397 xtb: 6.4.1 (1a32961)
N        -0.94452227380588   -2.04143569750730   -0.34123033703620
C        -2.18718645858333   -1.55491778148412   -0.52121447673811
C        -3.06355743332708   -2.14308272951635   -1.44165086783649
C        -2.65189294931705   -3.22958248778209   -2.18241104725626
C        -1.36167102966736   -3.71727517675977   -1.99033324689402
C        -0.55671218737945   -3.08990862189689   -1.06254533649661
H         0.44900005341561   -3.43769229324915   -0.87294314805544
H        -0.99752162265367   -4.56549906057110   -2.54665394926195
H        -4.05940752470985   -1.75499651901905   -1.57722081319953
C        -2.54885742709737   -0.39767613925478    0.28990944112484
N        -1.60513825516852    0.05753335001500    1.14242756092807
C        -1.89134747644715    1.10515541423115    1.91256232631456
C        -3.10476928513651    1.76246618449829    1.88342581387934
C        -4.08201420178107    1.31556590405020    0.99860857035992
C        -3.79700080646650    0.22965477336229    0.19833568320957
H        -4.54043260455396   -0.12774342575645   -0.49436424685402
H        -3.28416223721213    2.60155364275398    2.53558407948986
H        -1.09640197070139    1.42497368832681    2.56832612528152
Ir        0.42149999999996   -0.81649999999980    0.91329999999994
H         0.87259999999994   -2.23030000000004    1.54049999999946
B         0.42557110244150    0.55762604309292   -0.65037501305768
O        -0.15513669887303    0.21066128046282   -1.85667032389361
C        -0.24085038825470    1.35714540068572   -2.70930164637034
C         0.10545250335978    0.95616455410543   -4.14124272644642
H         1.05176522923844    0.42639236551237   -4.17192868422645
H         0.15718320030398    1.83722832784225   -4.77560600516153
H        -0.66760658434114    0.29338280811782   -4.52265471870703
C        -1.69629256433928    1.84408730931350   -2.65848241090308
H        -1.85094872208014    2.69079942753709   -3.32056457506235
H        -2.34579038750469    1.02760618738513   -2.96835374776678
H        -1.96372953182267    2.11953741461648   -1.64021839426727
C         0.76004145266238    2.35669652974845   -2.04010029771462
O         0.83437635085617    1.86986218246888   -0.69293906422369
C         2.17399534413114    2.25086862912790   -2.62472430557267
H         2.51966506753448    1.22426780445621   -2.53093340195828
H         2.20127270593810    2.57290991571510   -3.66165442365200
H         2.84147028828465    2.88047901720765   -2.04093880726165
C         0.31332403389967    3.81737841536942   -2.04409015215574
H        -0.60379801730091    3.95224141057993   -1.47922017199759
H         1.08680053117793    4.42682032943534   -1.58303892348528
H         0.16319316620772    4.15673526355180   -3.06580318597352
B         1.58473373953597    0.63194919319619    1.86832219004000
O         2.95468527943041    0.73029048150405    1.92210784901467
C         3.33173245347410    2.02686271108788    2.40868170556676
C         4.55632143820565    1.90765813341605    3.31394763856562
H         4.39309427984973    1.17740877748694    4.09956698376213
H         5.40751834450896    1.58191178601433    2.72152530320897
H         4.78726574247594    2.87277736016402    3.75679669084638
C         3.68278015394638    2.86658585126670    1.17465376180058
H         3.97117811246573    3.87738516437544    1.44742212482771
H         4.51034700534070    2.38996120940648    0.65432405889154
H         2.82849066875852    2.87800637341524    0.50260859471976
C         2.02648679019486    2.51983693079267    3.12152006269393
O         1.01424849468188    1.69667850043698    2.52684487602972
C         1.68028536239447    3.98861738157753    2.88374606700756
H         1.47981262977401    4.16581062468080    1.83244148555705
H         0.78569951634109    4.23916686067016    3.44844455745149
H         2.49487956477556    4.62604294494367    3.21627476620962
C         2.01803947800469    2.23386056371414    4.62854162663414
H         2.21730267865168    1.18112412192279    4.80929524326772
H         2.75088035641329    2.84473067816805    5.14690098600233
H         1.02929007625677    2.45798763847544    5.02222122488967
B         2.27820000000026   -1.33089999999985    0.17410000000065
O         3.05167676059686   -2.37273387470093    0.64168451127357
C         4.35511637143664   -2.32991658541906    0.04563029719693
C         5.28809865633586   -1.70069607850447    1.08593295185516
H         4.88585538539672   -0.73529289054717    1.38058401823193
H         5.30314760836484   -2.33950895880528    1.96542396866642
H         6.29945532924093   -1.59778003905355    0.70512200927024
C         4.82253486341938   -3.75178875036377   -0.26301881039777
H         4.92103080590545   -4.29745011083191    0.67166098303338
H         5.78785008765402   -3.72746949775310   -0.76074194338233
H         4.10666773234149   -4.27781155621526   -0.88566064769974
C         4.13090633764754   -1.41487759018560   -1.20875198043190
O         2.90913461859034   -0.73079570806212   -0.89026531520584
C         5.23255669008526   -0.38642247882090   -1.45698145221574
H         6.18802320519905   -0.88343927642775   -1.59995957069877
H         4.99404461733806    0.18211006753364   -2.35237799344725
H         5.29777654182084    0.30503930866938   -0.62428667220336
C         3.88255092472505   -2.20718084176461   -2.49964727177998
H         3.07054016976131   -2.91460507356173   -2.35542639847112
H         3.58579586651406   -1.51246459436957   -3.28195721810216
H         4.77935025197835   -2.73184180111480   -2.81483125797946
H        -3.31719306013760   -3.69138636673586   -2.89583538484302
H        -5.04178517944771    1.80576855797257    0.93847330756331
C         0.23589999999879   -1.68140000000000    2.96030000000063
N        -0.98609730730159   -2.08984364051035    3.37374074395444
C         0.98974643922256   -1.57677165091111    4.11931491531851
N        -1.08115579686799   -2.21741359061090    4.70443128549097
H        -1.79226180711869   -2.28944193901587    2.80444454096696
C         0.11850519541463   -1.90296936134612    5.16432862693876
H         2.02209179918730   -1.30220312275408    4.18592607260394
H         0.31436160358170   -1.92890220759294    6.21961289889267
