103
 energy: -147.340981331956 gnorm: 0.000176761946 xtb: 6.4.1 (1a32961)
N        -0.88427287762554   -2.01290721486548   -0.39944665179452
C        -2.13997953273366   -1.55154165100792   -0.56955218736268
C        -2.99990508316327   -2.13528397085653   -1.51000314010631
C        -2.56142309232481   -3.18670942981068   -2.28266821282911
C        -1.25781913158624   -3.64714828347641   -2.10216498647952
C        -0.47195498503030   -3.02951142464523   -1.15361601167516
H         0.54214101587505   -3.35821337340872   -0.97426406141542
H        -0.87161530387192   -4.46767047916765   -2.68490377619287
H        -4.00505648170057   -1.76747257283005   -1.63623884465604
C        -2.52736231769254   -0.42643005743366    0.26670896735127
N        -1.59243987484000    0.03075047706200    1.13007959463250
C        -1.90312528122960    1.05691744110545    1.92120447526989
C        -3.12828253178169    1.68952209013126    1.90381066398205
C        -4.09822484182296    1.23947115355145    1.00931269940691
C        -3.79002275054350    0.17680226526545    0.18933097760298
H        -4.52602932170087   -0.18404019785515   -0.51004480973450
H        -3.32624308407129    2.51270215575104    2.57124463465097
H        -1.11633595014039    1.37541882026345    2.58792737723547
Ir        0.42150000000003   -0.81650000000008    0.91329999999985
H         0.87260000000001   -2.23030000000008    1.54049999999999
B         0.41037479962062    0.63606889018710   -0.58361428963348
O        -0.20721479796276    0.36041256129414   -1.79145350789640
C        -0.31849184452934    1.55508622590489   -2.57041272053444
C        -0.03592106718264    1.24190428179548   -4.03772173855714
H         0.90241075784518    0.70721159744101   -4.14135111185414
H         0.00012523855851    2.16121424072128   -4.61674704244838
H        -0.83139268038942    0.61140398629124   -4.42806190937082
C        -1.76540220919801    2.05034291978161   -2.42945056270076
H        -1.93978170472676    2.93265190582999   -3.03816966874105
H        -2.43690466200364    1.25714451405651   -2.75291357146469
H        -1.98543245190057    2.27328292838276   -1.38713829332903
C         0.71648962531489    2.50579629489611   -1.88483351524866
O         0.82304446435699    1.95041590816976   -0.56761610166470
C         2.11004258219023    2.40769617736472   -2.51777194598747
H         2.43432498596727    1.36981149843494   -2.50325795110853
H         2.11497849477199    2.79684980677899   -3.53192186208507
H         2.80842341581161    2.98220159174509   -1.91358682126800
C         0.29336688541165    3.97132676681485   -1.80459621161880
H        -0.60067117759341    4.09194160580662   -1.20059503652302
H         1.09257048140379    4.54804353933746   -1.34513416350242
H         0.11108002136726    4.36007822233084   -2.80340685210316
B         1.55932978160672    0.62911610028903    1.90604014266318
O         2.92182014545020    0.80530858781020    1.86704127214349
C         3.28443023184975    2.04459960153734    2.48869187420981
C         4.54624815039785    1.84836578586715    3.32806557111599
H         4.42232556608106    1.02519647545867    4.02385341411310
H         5.37922528568469    1.61457888468345    2.66986448286380
H         4.77764079957231    2.75853271044213    3.87477476428026
C         3.57166722116736    3.03394082583630    1.35217695074714
H         3.83575687133365    4.01600581440816    1.73318775559532
H         4.39899961653434    2.65008404661136    0.75926362315706
H         2.69868335492472    3.09467582737814    0.70741823677937
C         2.00038154145477    2.41210079171569    3.30965174234990
O         0.98924104310323    1.60035903165545    2.70069582001655
C         1.58307026917967    3.88018686038652    3.22471547451410
H         1.33705033028398    4.15022686219005    2.20311308253591
H         0.70004290431512    4.03416162554348    3.84010973752672
H         2.38108152061930    4.51959456358518    3.59231222499294
C         2.08515099117994    1.99749713692933    4.78414682122023
H         2.31661873452763    0.93836442300025    4.86097556288791
H         2.83258102676193    2.58070753486730    5.31311806217087
H         1.11598470708427    2.16261622194537    5.24888673018150
B         2.27819999999953   -1.33089999999947    0.17410000000044
O         3.14256118181552   -2.26311494884366    0.71048626402269
C         4.40907427670070   -2.21546218725409    0.04314225921701
C         5.35804672039651   -1.43440904282275    0.95906435905292
H         4.91854324924075   -0.46501460074147    1.17697192541318
H         5.45633051203072   -1.97719750599044    1.89614990072317
H         6.34092699905627   -1.31997982026946    0.51241302076870
C         4.94145470639716   -3.63634916958252   -0.14294393541242
H         5.12360112727197   -4.07186588663095    0.83594378665436
H         5.87412763682377   -3.61603635999473   -0.69987867354011
H         4.22341445426151   -4.26347864991866   -0.66059464353981
C         4.07260032627794   -1.45175196754786   -1.28575693053109
O         2.82300274116237   -0.81515480119045   -0.98187793197061
C         5.09261962220609   -0.38746752794731   -1.68791860304816
H         6.07515429244201   -0.83364155651761   -1.81493980871668
H         4.78698977404496    0.06154945432223   -2.62976666089392
H         5.13674011510136    0.39520239894493   -0.93840223629950
C         3.82782834835653   -2.38760476403748   -2.47755332866155
H         3.07924058910970   -3.13288338323572   -2.22326893310857
H         3.44464786651752   -1.79927477620031   -3.30794177528637
H         4.74669565101169   -2.87780352766065   -2.78476609263004
H        -3.21333592234586   -3.64293242290768   -3.01218016223287
H        -5.06822426228138    1.71089106576930    0.95886010953438
C         0.23590000000106   -1.68140000000179    2.96029999999774
C        -0.99659019669224   -1.90033903853811    3.51234362575644
C         1.15712117553594   -1.72192748382267    4.05273561219784
N        -0.91512009611872   -2.02132830287471    4.87965755342124
H        -1.95713996602625   -1.98147452319175    3.03733721452560
C         2.54633930854879   -1.63581803196637    4.13567423221429
C         0.39811325685539   -1.91499227310713    5.23623167101747
C        -2.01751549150960   -2.20574424178222    5.78107115968147
C         3.13962699591087   -1.72021803738807    5.37663332352532
H         3.11618873939659   -1.50399314362227    3.22957919648057
C         1.00462405564983   -1.99057360833492    6.48618641663633
H        -2.11689730715069   -1.34648548048214    6.44974822508528
H        -1.86889803740557   -3.10385310102732    6.38526160433208
H        -2.93524005677508   -2.31376698440911    5.20627696800367
C         2.37809259367244   -1.88869015079879    6.53858473111820
H         4.21527576727447   -1.65608810560439    5.46661857958484
H         0.42329867818437   -2.12902098909375    7.38607084259321
H         2.88049008767194   -1.94509813555485    7.49395962473787
