12
 energy: -24.258799240452 gnorm: 0.000109677015 xtb: 6.4.1 (1a32961)
C        -1.38010445702589   -0.02534164553038   -0.02523418617386
C        -0.74057591626580    1.20247925366812   -0.02307941694190
C         0.65676509347248    1.21690348442257   -0.00277500605469
C         1.34739043009057    2.45995835643257    0.00188636238716
N         1.86860705628048    3.48035808896681    0.00593740907583
N         1.39674961951788    0.10854367807429    0.01417931300810
C         0.79138681658899   -1.05650984692097    0.01172738009845
C        -0.59678273686731   -1.17087637981468   -0.00697308139838
Br       -1.40809785704097   -2.89335739715126   -0.00842994350013
H        -2.45686220124440   -0.09128438156117   -0.04136056525200
H        -1.29949506055053    2.12442194873869   -0.03734073290191
H         1.43066921304453   -1.92778515932459    0.02627246765333
