114
 energy: -167.415985535638 gnorm: 0.000390032578 xtb: 6.4.1 (1a32961)
N        -0.96510000000002   -2.11529999999995   -0.24090000000007
C        -2.24700000000007   -1.69839999999991   -0.36220000000016
C        -3.14039999999997   -2.36820000000022   -1.21199999999984
C        -2.70220000000001   -3.47559999999993   -1.93049999999992
C        -1.37779999999904   -3.89879999999999   -1.78760000000016
C        -0.54290000000014   -3.18670000000043   -0.93510000000021
H         0.49810000000001   -3.45630000000000   -0.78940000000003
H        -0.99570000000012   -4.76029999999999   -2.32770000000003
H        -4.16500000000006   -2.02890000000001   -1.31830000000000
C        -2.62129999999968   -0.50950000000035    0.44099999999967
N        -1.62600000000000    0.07329999999997    1.16019999999989
C        -1.89679999999995    1.15240000000008    1.91690000000004
C        -3.17229999999990    1.70329999999971    1.99649999999988
C        -4.20509999999984    1.11740000000030    1.26270000000002
C        -3.92609999999962    0.00249999999980    0.47819999999999
H        -4.71959999999990   -0.46420000000002   -0.09520000000014
H        -3.34630000000000    2.57510000000004    2.62069999999993
H        -1.04449999999999    1.57420000000000    2.43689999999993
Ir        0.42149999999999   -0.81650000000001    0.91330000000001
H         0.87260000000000   -2.23030000000000    1.54050000000000
B         0.50669999999997    0.41559999999964   -0.81539999999996
O         0.19500000000005   -0.04700000000004   -2.09150000000002
C         0.00649999999993    1.10040000000021   -2.95429999999980
C         0.49020000000014    0.74740000000002   -4.35780000000008
H         1.51610000000030    0.37380000000000   -4.33699999999999
H         0.44730000000001    1.62240000000014   -5.01670000000003
H        -0.14739999999988   -0.03389999999986   -4.78430000000004
C        -1.50119999999985    1.39559999999970   -2.96669999999990
H        -1.75370000000003    2.21460000000006   -3.64849999999993
H        -2.03199999999998    0.49450000000003   -3.28929999999996
H        -1.85170000000001    1.65209999999999   -1.96219999999991
C         0.84230000000001    2.20670000000011   -2.22039999999997
O         0.75200000000006    1.78259999999974   -0.83689999999996
C         2.32930000000031    2.18619999999994   -2.59900000000015
H         2.74130000000001    1.18500000000016   -2.45749999999999
H         2.48870000000000    2.51299999999997   -3.63180000000003
H         2.87200000000009    2.86270000000002   -1.93200000000000
C         0.28440000000010    3.62289999999972   -2.33659999999984
H        -0.72650000000002    3.69040000000006   -1.92909999999998
H         0.92130000000009    4.31479999999993   -1.77610000000005
H         0.26429999999999    3.94809999999999   -3.38320000000012
B         1.56299999999997    0.60960000000002    1.84840000000000
O         2.92780000000000    0.55230000000002    2.15020000000000
C         3.36330000000009    1.88660000000001    2.50260000000002
C         4.53139999999989    1.78589999999982    3.47740000000001
H         4.27910000000002    1.16089999999999    4.33689999999992
H         5.39389999999992    1.33789999999996    2.97340000000005
H         4.82389999999999    2.77869999999997    3.83819999999999
C         3.79700000000002    2.56849999999997    1.19669999999997
H         4.20020000000002    3.57089999999999    1.37679999999999
H         4.56740000000003    1.95559999999998    0.72110000000000
H         2.95240000000001    2.63259999999999    0.50540000000002
C         2.05039999999998    2.50090000000005    3.09320000000001
O         1.03750000000000    1.81619999999996    2.31909999999998
C         1.89099999999982    4.00450000000000    2.88649999999993
H         1.87290000000003    4.25439999999999    1.82409999999998
H         0.94939999999999    4.34259999999997    3.33170000000007
H         2.71080000000004    4.55150000000004    3.36630000000002
C         1.82470000000003    2.13200000000004    4.56520000000016
H         1.92610000000003    1.05330000000003    4.71320000000001
H         2.52609999999991    2.65280000000004    5.22540000000003
H         0.80630000000014    2.41579999999997    4.84900000000002
B         2.27819999999998   -1.33090000000009    0.17409999999992
O         2.89460000000006   -2.57739999999997    0.38449999999991
C         4.26930000000001   -2.48200000000004   -0.07209999999989
C         5.10899999999995   -2.05379999999998    1.14010000000009
H         4.76349999999996   -1.08739999999997    1.51749999999998
H         4.98050000000002   -2.79470000000010    1.93589999999990
H         6.17419999999999   -1.99290000000004    0.89299999999994
C         4.71950000000001   -3.84660000000006   -0.58469999999949
H         4.75279999999993   -4.56129999999998    0.24419999999986
H         5.72330000000010   -3.78370000000001   -1.02010000000004
H         4.03499999999994   -4.23599999999998   -1.34170000000010
C         4.16440000000036   -1.36219999999991   -1.16299999999990
O         3.08519999999997   -0.55029999999997   -0.65399999999985
C         5.40720000000005   -0.48870000000008   -1.31549999999971
H         6.27319999999997   -1.09010000000000   -1.61530000000004
H         5.23299999999998    0.26929999999997   -2.08590000000001
H         5.64270000000002    0.02650000000007   -0.38240000000003
C         3.71800000000011   -1.89830000000007   -2.53110000000010
H         2.82529999999990   -2.52160000000000   -2.42740000000002
H         3.46089999999995   -1.05250000000002   -3.17549999999990
H         4.50569999999999   -2.48290000000007   -3.01790000000000
H        -3.38500000000017   -4.00130000000004   -2.59309999999991
H        -5.21399999999997    1.52079999999996    1.29960000000009
C         0.23589999999998   -1.68139999999999    2.96030000000004
C        -1.00757402245638   -2.15259070569907    3.37065753914940
C         1.26805454199911   -1.68132227065968    3.90600565742009
C        -1.16409500095014   -2.56535295290259    4.69638967071791
H        -1.84305959689389   -2.23699342720338    2.68661937803539
N         1.17016631103259   -2.09253242392916    5.17018094607543
H         2.26007601156265   -1.35321469716502    3.61909357373973
C        -0.02962098960896   -2.53927523139409    5.53046806222090
C        -2.22673965295679   -3.13275677295100    5.45775418449801
N        -0.37997813730143   -3.09566080871342    6.75340992264188
C        -1.72619567477183   -3.44336056572745    6.67991339085223
H        -3.23627916815503   -3.29405733962364    5.12315434461522
C         0.43208583272389   -3.43677808903224    7.83317555800114
H        -2.19206100135936   -3.90086324977313    7.53535803221336
O        -0.00977935565282   -4.02558406021395    8.79546131487091
O         1.68589418855119   -3.04435814615744    7.63075735876096
C         2.75245564084985   -3.38558061917096    8.56393179341769
C         2.91396286831666   -4.90748547587795    8.63263903848657
C         3.99405901664054   -2.73921604473074    7.94185509963569
C         2.46938993317553   -2.79250218696576    9.94735176805197
H         3.08623612002147   -5.30829749187174    7.63299280512841
H         2.01930790318472   -5.36857582853429    9.04921282534963
H         3.76471156814611   -5.15461614587766    9.26665033914777
H         4.10700965921841   -3.07848637146580    6.91294466246549
H         4.88010726797371   -3.01018797448986    8.51524052496424
H         3.88461047424150   -1.65568404798219    7.93559361940864
H         1.60376920878808   -3.27264064719523   10.40125425673686
H         2.27437554810641   -1.72288588502812    9.86071109926874
H         3.33652890477314   -2.94438734322798   10.58889720328171
