118
 energy: -179.799089562219 gnorm: 0.002073055135 xtb: 6.4.1 (1a32961)
N        -0.96510000000000   -2.11530000000000   -0.24090000000000
C        -2.24700000000000   -1.69840000000000   -0.36220000000000
C        -3.14040000000000   -2.36820000000000   -1.21200000000000
C        -2.70220000000000   -3.47560000000000   -1.93050000000000
C        -1.37780000000000   -3.89880000000000   -1.78760000000000
C        -0.54290000000000   -3.18670000000000   -0.93510000000000
H         0.49810000000000   -3.45630000000000   -0.78940000000000
H        -0.99570000000000   -4.76030000000001   -2.32770000000000
H        -4.16500000000000   -2.02890000000000   -1.31830000000000
C        -2.62130000000000   -0.50950000000000    0.44100000000000
N        -1.62600000000000    0.07330000000000    1.16020000000000
C        -1.89680000000000    1.15240000000000    1.91690000000000
C        -3.17230000000000    1.70330000000000    1.99650000000000
C        -4.20510000000000    1.11739999999999    1.26270000000000
C        -3.92610000000000    0.00250000000000    0.47820000000000
H        -4.71960000000000   -0.46420000000000   -0.09520000000000
H        -3.34630000000000    2.57510000000000    2.62070000000000
H        -1.04450000000000    1.57420000000000    2.43690000000000
Ir        0.42150000000000   -0.81650000000000    0.91330000000000
H         0.87260000000000   -2.23030000000000    1.54050000000000
B         0.50670000000000    0.41560000000000   -0.81540000000000
O         0.19500000000000   -0.04700000000000   -2.09150000000000
C         0.00650000000000    1.10040000000000   -2.95430000000000
C         0.49020000000000    0.74740000000001   -4.35780000000000
H         1.51610000000000    0.37380000000001   -4.33700000000000
H         0.44730000000000    1.62240000000001   -5.01670000000000
H        -0.14740000000000   -0.03390000000000   -4.78430000000000
C        -1.50120000000000    1.39560000000000   -2.96670000000000
H        -1.75370000000000    2.21459999999999   -3.64850000000000
H        -2.03200000000000    0.49450000000000   -3.28930000000000
H        -1.85170000000000    1.65210000000000   -1.96220000000000
C         0.84229999999999    2.20670000000000   -2.22040000000000
O         0.75200000000000    1.78260000000000   -0.83690000000000
C         2.32930000000000    2.18620000000001   -2.59900000000000
H         2.74130000000000    1.18500000000000   -2.45750000000000
H         2.48870000000000    2.51300000000000   -3.63179999999999
H         2.87200000000000    2.86270000000000   -1.93199999999999
C         0.28439999999999    3.62290000000000   -2.33660000000000
H        -0.72650000000000    3.69040000000000   -1.92910000000000
H         0.92130000000000    4.31480000000000   -1.77610000000000
H         0.26430000000000    3.94810000000001   -3.38320000000000
B         1.56300000000000    0.60960000000000    1.84840000000000
O         2.92780000000000    0.55230000000000    2.15020000000000
C         3.36330000000000    1.88660000000000    2.50260000000000
C         4.53140000000000    1.78590000000001    3.47740000000000
H         4.27910000000000    1.16090000000000    4.33690000000000
H         5.39390000000000    1.33790000000000    2.97340000000000
H         4.82390000000000    2.77870000000000    3.83820000000000
C         3.79700000000000    2.56850000000000    1.19670000000000
H         4.20020000000000    3.57090000000000    1.37680000000000
H         4.56740000000000    1.95560000000000    0.72110000000000
H         2.95239999999999    2.63260000000000    0.50540000000000
C         2.05040000000000    2.50090000000000    3.09320000000000
O         1.03750000000000    1.81620000000000    2.31910000000000
C         1.89100000000000    4.00450000000000    2.88650000000000
H         1.87290000000000    4.25440000000000    1.82410000000001
H         0.94940000000000    4.34260000000000    3.33170000000001
H         2.71080000000000    4.55150000000001    3.36629999999999
C         1.82470000000000    2.13200000000000    4.56520000000000
H         1.92610000000000    1.05330000000000    4.71320000000000
H         2.52610000000000    2.65279999999999    5.22540000000000
H         0.80630000000000    2.41580000000000    4.84900000000000
B         2.27820000000000   -1.33089999999999    0.17410000000000
O         2.89460000000000   -2.57740000000000    0.38450000000000
C         4.26930000000000   -2.48200000000000   -0.07210000000000
C         5.10900000000000   -2.05380000000000    1.14010000000000
H         4.76350000000000   -1.08739999999999    1.51750000000000
H         4.98050000000000   -2.79470000000000    1.93590000000000
H         6.17420000000000   -1.99289999999999    0.89300000000000
C         4.71950000000001   -3.84660000000000   -0.58470000000001
H         4.75280000000000   -4.56130000000000    0.24420000000000
H         5.72330000000001   -3.78370000000000   -1.02010000000000
H         4.03500000000000   -4.23600000000001   -1.34170000000000
C         4.16440000000000   -1.36220000000001   -1.16300000000001
O         3.08520000000000   -0.55030000000000   -0.65400000000000
C         5.40720000000000   -0.48870000000000   -1.31550000000000
H         6.27320000000000   -1.09010000000000   -1.61530000000001
H         5.23300000000000    0.26930000000001   -2.08589999999999
H         5.64270000000000    0.02650000000000   -0.38240000000000
C         3.71800000000000   -1.89830000000000   -2.53110000000000
H         2.82529999999999   -2.52160000000000   -2.42740000000000
H         3.46090000000001   -1.05250000000001   -3.17550000000000
H         4.50570000000000   -2.48290000000000   -3.01790000000000
H        -3.38500000000000   -4.00130000000001   -2.59310000000000
H        -5.21400000000001    1.52080000000000    1.29960000000000
C         0.23589999999999   -1.68140000000001    2.96029999999999
C        -1.10918900201319   -1.92577180271086    3.30769668695598
C         1.12119545193812   -2.07141967118784    3.98694940787686
C        -1.56431136579738   -2.45211531914766    4.52353544632062
H        -1.88375462649968   -1.72397583622738    2.58242525302906
C         2.61241452688573   -2.05771485150576    3.95838715550004
C         0.72276839035604   -2.64564618761488    5.19518337646602
B        -3.04835046579347   -2.83264766826298    4.94893590101563
C        -0.60774357055164   -2.86554743281952    5.45741762553860
F         3.18015824841520   -1.73808320273917    2.79714346487271
F         3.15398473644859   -1.21757119796632    4.89342098792238
F         3.14735175116234   -3.28088067966354    4.27486184974960
H         1.47835591683459   -2.95714305113251    5.90374918390996
C        -4.05115204453128   -3.52712454970882    4.06214021236675
N        -3.39564599181333   -2.74042101640734    6.35133309327876
H        -0.88930141587829   -3.39512929018839    6.35234344845355
C        -5.12583661821189   -4.15021092587215    4.62404806377383
H        -3.95317668162192   -3.56124165731415    2.98516119614123
C        -2.68912296503626   -1.85094505983501    7.27046904564569
C        -4.41096894641527   -3.50109298302410    6.88728612118109
C        -5.28967841420101   -4.21686240868516    6.02977884059374
H        -5.86886441490835   -4.65453506620079    4.01711908146510
H        -2.02378229888128   -1.20276968698983    6.69901146165749
H        -2.08859706846945   -2.40963254200501    8.00265255786890
H        -3.41387496457997   -1.22869474178332    7.81317699316193
C        -4.58105068355170   -3.64098879708550    8.27938480726597
C        -6.30184015120374   -5.00797106225384    6.59459700066889
C        -5.56231069634369   -4.46159295421544    8.80037914544716
H        -3.91718856678098   -3.14155410333130    8.96588028458652
C        -6.43758646299394   -5.14176218419387    7.96020736935977
H        -6.97149259032283   -5.53760452533475    5.93045132972027
H        -5.64121525635941   -4.57851022442412    9.87231458802572
H        -7.20790222490687   -5.77532317244815    8.37585886197314
