116
 energy: -163.639640334450 gnorm: 0.000312985397 xtb: 6.4.1 (1a32961)
N        -0.92284618156484   -1.97569693008435   -0.38821680497207
C        -2.16929137190568   -1.48624280177967   -0.55033272840225
C        -3.08007459558149   -2.10765430829725   -1.41648062570830
C        -2.69750439906506   -3.21779817805878   -2.13455676779746
C        -1.39909078680169   -3.70040585585960   -1.97224123165819
C        -0.56480256773850   -3.04937256861569   -1.08967811387590
H         0.44466943742457   -3.39750721082703   -0.92076474087276
H        -1.05528348092769   -4.56603641257777   -2.51489795437189
H        -4.08295670566801   -1.72655297090987   -1.51931893601285
C        -2.49530873940413   -0.29405709032220    0.21499873048641
N        -1.56373906368803    0.12357939574610    1.10184028954710
C        -1.82519145259757    1.20500017919682    1.83510609595913
C        -2.98586499848726    1.94042445423111    1.72306268624507
C        -3.94079735803740    1.54185659651393    0.78868813277536
C        -3.68871554278824    0.41752025197859    0.03460515003860
H        -4.40952954361135    0.09789542862220   -0.70005972156489
H        -3.14537758067915    2.80461809369029    2.34772894918268
H        -1.05094264154069    1.48485815036793    2.53242589864809
Ir        0.42149999999988   -0.81649999999988    0.91329999999988
H         0.87259999999997   -2.23029999999995    1.54050000000006
B         0.46592320675560    0.66698400035126   -0.55772800728155
O        -0.17564192527990    0.46191610445851   -1.76644308887483
C        -0.18677443794742    1.67421793041672   -2.52788468426181
C         0.06931263988663    1.35830339255110   -3.99946121868154
H         0.96094095654800    0.75017767880135   -4.11074768872353
H         0.18066696137661    2.27913587719215   -4.56629373863091
H        -0.77477060655544    0.80002338364853   -4.39768083312842
C        -1.58566625560448    2.28909283999563   -2.37704210157686
H        -1.68524855172882    3.18999459182212   -2.97536114710510
H        -2.32382935919359    1.56035739557665   -2.70603106060785
H        -1.78271360715072    2.51829657402463   -1.33169186537728
C         0.92411680959028    2.52571982574670   -1.83018334441421
O         0.98649323834607    1.94125838539011   -0.52268941863952
C         2.30454858661712    2.32642942270398   -2.46798689048238
H         2.54598252456672    1.26640397333876   -2.46590428975580
H         2.33900091630056    2.72742941522137   -3.47690634796989
H         3.04649313171072    2.83577037848833   -1.85738959324360
C         0.62301890133837    4.01948512279502   -1.72331392741102
H        -0.25379040346765    4.20237337207981   -1.11003684807324
H         1.46999569282939    4.52076778137042   -1.26088790939517
H         0.46671563977743    4.43903049955393   -2.71398996461046
B         1.59467705431679    0.58085368609911    1.93341774685357
O         2.96953964317677    0.63120449969308    1.99294286511097
C         3.39285829316072    1.86626169810510    2.58616323776491
C         4.60281457993133    1.62189961053041    3.48674911192691
H         4.40250185788639    0.83052962523556    4.20117431791695
H         5.44870743238489    1.31954027718009    2.87449933944425
H         4.86368203606636    2.53393462230562    4.01694673970210
C         3.79013871047337    2.79131354749923    1.42937767907535
H         4.11378340580211    3.76421614931709    1.78729088252513
H         4.60501028840818    2.32711722347220    0.87833299580888
H         2.94471467897680    2.89166924878188    0.75353941086332
C         2.10217978843757    2.34832742942287    3.33124373940647
O         1.06307960790277    1.61924298602114    2.66536625419539
C         1.81962270771063    3.84569801245348    3.22206864574250
H         1.64184889074273    4.12625318551669    2.18936360557915
H         0.92858728366990    4.08255639435136    3.79823616891104
H         2.65539116261208    4.41529580693967    3.61963404962183
C         2.07057212813434    1.93347428073697    4.80788225836730
H         2.21750738408273    0.86053716430064    4.89424998229600
H         2.82688248271267    2.46245582938777    5.37958317381555
H         1.09007354348760    2.16816049994972    5.21547710382719
B         2.27820000000113   -1.33090000000048    0.17409999999980
O         3.06154485401227   -2.36219973522873    0.65177918246545
C         4.35207266089014   -2.33979096667123    0.03007005839642
C         5.31182338695251   -1.70373095657973    1.04157883201287
H         4.92237927957730   -0.73169261759652    1.33055087466941
H         5.34021997114639   -2.33073501278930    1.92926112137281
H         6.31586783543274   -1.61340744054339    0.63883174023739
C         4.80109617371680   -3.77088467728672   -0.26515090844544
H         4.91561961882395   -4.30205272884781    0.67599635485520
H         5.75501909639378   -3.76356052659703   -0.78498176416926
H         4.06657881098083   -4.30060830074498   -0.86239987372954
C         4.11084892418799   -1.44391430011029   -1.23518445662122
O         2.89595919750637   -0.75149184407850   -0.91078805491223
C         5.21306483098644   -0.42406095113127   -1.51633344436658
H         6.16562002834183   -0.92724305201455   -1.65762445637313
H         4.96868541573124    0.12602890318019   -2.42157174257072
H         5.28813153946796    0.28522443988072   -0.69950701137417
C         3.84127170746459   -2.25606261124939   -2.50955855618685
H         3.02862468023720   -2.95765338428588   -2.34203256001154
H         3.53502728406714   -1.57311923290346   -3.29844776727653
H         4.73124887544393   -2.78950934036050   -2.82938249899204
H        -3.38826884309615   -3.70444142283440   -2.80636801584521
H        -4.85517775518959    2.10071053695095    0.65692849774993
C         0.23590000000089   -1.68139999999682    2.96029999999575
C        -1.05604638022551   -1.99110584806711    3.34317143785905
C         1.25642035436037   -1.63751264642065    3.92954657766874
C        -1.35036059407017   -2.17149274444127    4.69901011560724
H        -1.85160200309925   -2.10490582766224    2.62055752416648
C         1.00375233156031   -1.81518207996239    5.27159881496676
H         2.26820852406069   -1.46783388540865    3.59476659808516
C        -0.30795985649051   -2.07559316847896    5.65228775625947
C        -2.54418498248340   -2.48939691078680    5.41808747164034
H         1.79056510183863   -1.77510173433433    6.01071552449542
N        -0.86034760003055   -2.29702290990775    6.87548818761414
C        -2.19042046414878   -2.57029192670294    6.73595658987593
C        -3.90399812083405   -2.69235721774221    4.83922716063928
O        -0.15119531005751   -2.41577075816417    8.04651885292051
H        -2.78763556470619   -2.78577688436283    7.60002738849951
H        -4.60955215279414   -2.96535124921077    5.61975872990564
H        -3.88452638475581   -3.48290019740559    4.08942404442971
H        -4.25375904082536   -1.78087482164835    4.35513995303855
Si        0.34790971531918   -3.89213309617944    8.67781760015344
C        -1.12697505016377   -4.77614906837303    9.50471818364410
C         1.07133143775494   -4.99075564680952    7.30198132900140
C         1.62340735737167   -3.29219333909135    9.94715557056448
H        -1.85294682701882   -5.11843294703375    8.77138721128510
H        -1.64337117157126   -4.11540399106996   10.19628308383679
H        -0.80058623983503   -5.64524662931750   10.06650743892912
H         0.34159707731674   -5.15303027261174    6.51214407660485
H         1.37018607035998   -5.96348233324190    7.67815185007150
H         1.94258498163453   -4.53202786790242    6.84314359289954
H         1.19436545057624   -2.55226946027530   10.61491879155889
H         2.48345540136639   -2.83964647385060    9.46439510850947
H         1.97863691952259   -4.12020925395173   10.55042537314085
