15
 energy: -23.115117610724 gnorm: 0.000169309507 xtb: 6.4.0 (f63f532)
C        -0.07435304043332   -1.20618991217832    0.00865942675926
C         1.31058892968458   -1.20373857546475    0.00256451902812
C         2.02716431549584   -0.01393128087614   -0.00281069252699
C         3.52536498897309   -0.00625521680770   -0.00992171604244
C         1.32060695496344    1.18514781298786   -0.00113153759437
C        -0.06198149508839    1.20187249373097    0.00498441612626
C        -0.75125178684691    0.00036031391296    0.00977940988656
Cl       -2.49360011263173    0.00971759955804    0.01762699862135
H        -0.62161623158889   -2.13560730349060    0.01269143111847
H         1.83673230082845   -2.14681837635171    0.00149488547275
H         3.91987250760196   -1.01837553633087   -0.02573191148950
H         3.90385062384662    0.50261706958160    0.87531713130169
H         3.89592371073287    0.52778301933848   -0.88344676267210
H         1.86018683659878    2.12059037286861   -0.00514432119656
H        -0.60096850213638    2.13607751952155    0.00608872320751
