96
 energy: -139.743649494747 gnorm: 0.000714973587 xtb: 6.4.0 (f63f532)
N        -0.93801144097433   -1.98908862823713   -0.38703640026409
C        -2.17091311175064   -1.48269277411035   -0.57976087141585
C        -3.05572364533644   -2.07258392900211   -1.49262013002909
C        -2.65829216040601   -3.17064951810577   -2.22239443889566
C        -1.37334816942593   -3.67158310498206   -2.02594546406763
C        -0.56482593862055   -3.04865427400064   -1.09889294302836
H         0.43537335410151   -3.41018293989143   -0.90583591021677
H        -1.01728401704585   -4.52637637860241   -2.57731759544557
H        -4.04806186802546   -1.67542859825242   -1.62925090799655
C        -2.51152681910580   -0.29647980103751    0.19324163923141
N        -1.57999585404989    0.14113996768787    1.06842075493765
C        -1.84675969412972    1.22713302768264    1.79250033674428
C        -3.02246041121760    1.94035840418857    1.69350593775276
C        -3.98518355493889    1.51262512282393    0.78173177498352
C        -3.72176059756533    0.38929389045828    0.02894405972419
H        -4.45094759237233    0.04922569970022   -0.68754016632773
H        -3.18758328807175    2.80709757268298    2.31283531563569
H        -1.06800655476815    1.52538917982260    2.47797345659074
Ir        0.42149999999973   -0.81650000000035    0.91330000000034
H         0.87260000000002   -2.23030000000002    1.54050000000018
B         0.39165760824235    0.62911780024240   -0.59008598132682
O        -0.16867096514494    0.33345363713001   -1.81626983388203
C        -0.23992370556758    1.51490829830843   -2.62303609140036
C         0.14600525430209    1.17468004097682   -4.06025138830008
H         1.09331014515956    0.64658169466185   -4.08583691991916
H         0.21522736329645    2.08206482640347   -4.65458108051245
H        -0.61540498672290    0.52894513345369   -4.49129542123355
C        -1.69616227364239    2.00016939693274   -2.59214531662564
H        -1.83204947305506    2.86705658433427   -3.23205721025752
H        -2.33973858799643    1.19577082311592   -2.94337186543594
H        -1.99006687713572    2.24751622678710   -1.57386394834134
C         0.73928917147308    2.48861216795975   -1.88859981693695
O         0.76954134913865    1.95260578548759   -0.55768920193691
C         2.16944324365849    2.39642378946506   -2.43350933931718
H         2.50174554926388    1.36223097844024   -2.38565776275410
H         2.23088337155962    2.77224451699300   -3.45063820636018
H         2.82481904889165    2.98658261061445   -1.79777695852744
C         0.29710208675046    3.94998925195375   -1.85427994783268
H        -0.63271726863232    4.07000154762197   -1.30634443222491
H         1.06204590362686    4.54238171086551   -1.35772833977467
H         0.17053004894750    4.32269498933138   -2.86745198177830
B         1.57924834095457    0.64226777366191    1.87630475943079
O         2.87793818227577    1.01603399958470    1.65729183707162
C         3.18545114075110    2.23629370531568    2.34874297101950
C         4.53314563392749    2.09475213446987    3.05757227540446
H         4.54883490532775    1.23015208746108    3.71205712359818
H         5.31076214497936    1.95898615800355    2.31063823003806
H         4.75060845846654    2.99161491943738    3.63022227983420
C         3.30200784510136    3.32585190884711    1.27666149119027
H         3.49001061313456    4.29989858060156    1.71794045601809
H         4.12950054183456    3.07075280089233    0.61860628398091
H         2.39339403462310    3.34511928364585    0.68192454900711
C         1.95283943033896    2.43044692529909    3.30749021485074
O         1.01611096034657    1.44757822159618    2.84194560495843
C         1.28574180028514    3.80513879943526    3.21904279264781
H         0.91559695441799    3.98847093598643    2.21536202821335
H         0.44119348789830    3.83051264583602    3.90410436276458
H         1.98610352684953    4.58587438763490    3.50096406438241
C         2.25095601746074    2.12890416075303    4.78060810595411
H         2.68107562969434    1.13947136176909    4.89553705693587
H         2.93037198286608    2.86700396268098    5.19518344033147
H         1.31653388705186    2.15597916541644    5.33726677466043
B         2.27820000000058   -1.33089999999903    0.17410000000052
O         3.20979221220765   -2.16839930962324    0.73714507910966
C         4.41777160312414   -2.16841228934191   -0.03750348110883
C         5.40570088544223   -1.23957051869405    0.67414833132060
H         4.94786400041611   -0.26231385995283    0.79883082242201
H         5.60740371607469   -1.64104303258970    1.66406263467189
H         6.33856374442587   -1.15956010080507    0.12561137848134
C         4.99127808354067   -3.58318409757312   -0.08027451733498
H         5.27876032230810   -3.87080488464443    0.92732551276631
H         5.86887762825882   -3.60965899147165   -0.71984077983838
H         4.25899875058964   -4.29877367666300   -0.43938256024894
C         3.93519377140331   -1.59930143619329   -1.41647944614450
O         2.70796992862322   -0.93352765215461   -1.07251629516963
C         4.88958403968732   -0.60005356386961   -2.06689328448548
H         5.86186451108333   -1.05850567836605   -2.22404739279648
H         4.48683702597058   -0.29592420893721   -3.03005177982191
H         4.99648526477216    0.28345544909234   -1.44693657618131
C         3.58651628907102   -2.69511500509854   -2.43246788489851
H         2.89545530558240   -3.40925700751448   -1.99311450500503
H         3.09571934341316   -2.23500629698958   -3.28676157169047
H         4.48056817133332   -3.20977491349676   -2.77096347444644
H        -3.32933207939094   -3.63070772957444   -2.93178379892270
H        -4.91517379733348    2.04822026137630    0.66479107504999
C         0.23589999999817   -1.68140000000378    2.96030000000476
C        -1.11481985428590   -1.92041062095429    3.23939857385656
C         1.08717670548246   -1.66007594339966    4.05494801900086
C        -1.60052593219147   -1.97970602144878    4.53324703856932
H        -1.81146793309336   -2.07082350159067    2.42665743924042
C         0.62147614355834   -1.71409951965177    5.35906569793842
I         3.18652320944638   -1.65903814034355    3.83589081083980
C        -0.73307750866571   -1.84624761399644    5.60398213638813
H        -2.65613029769687   -2.13888248893165    4.70327156714301
H         1.31707550720341   -1.66963607118855    6.18321026971366
H        -1.09722353245960   -1.87883470628274    6.61966303779605
