12
 energy: -23.993333424522 gnorm: 0.000466495378 xtb: 6.4.1 (1a32961)
C        -0.14010906821818    0.70111195568618   -0.02006576524171
Cl        1.35069385010872    1.58468325854604   -0.04982044704556
C        -1.34604933877375    1.38494851032283   -0.03296996619832
C        -2.53710187118635    0.67961914648890   -0.01064906976138
C        -2.52610369008338   -0.70532892135676    0.02377104356123
C        -1.32403064185339   -1.39193270624610    0.03719632458258
C        -0.12909831447420   -0.68923117372634    0.01533349254355
Cl        1.37553911595843   -1.54929500812416    0.03398939193829
H        -1.33956005974899    2.46247155081614   -0.06140406086741
H        -3.47228961331565    1.21633823294697   -0.02094377517275
H        -3.45271095934703   -1.25649132444640    0.04103367309964
H        -1.30040940906623   -2.46924352090729    0.06551915856184
