103
 energy: -150.415135880036 gnorm: 0.000315133366 xtb: 6.4.0 (f63f532)
N        -0.92155796341183   -2.22791881680636   -0.23530379997948
C        -2.22356008745005   -1.90561327276786   -0.29447521960665
C        -3.16985937303826   -2.79654588622545   -0.81645296782408
C        -2.75510475377327   -4.00871222451025   -1.32527849373800
C        -1.39605473908457   -4.30806725983409   -1.30435796958044
C        -0.52880993748070   -3.39304590522367   -0.73964880381790
H         0.53226722250851   -3.58649021426329   -0.68061151053703
H        -1.02539621954595   -5.23862283306109   -1.70222341991033
H        -4.21905598490382   -2.54965890349667   -0.80211152028693
C        -2.59332585926015   -0.58913518853769    0.21527398820446
N        -1.68064874530601    0.04714708642428    0.97481844679015
C        -1.98905553145760    1.24860909371625    1.45653143417671
C        -3.19085614661347    1.88377707333685    1.21346569326858
C        -4.12949514654113    1.24932148747564    0.40584196392376
C        -3.82136622499249    0.00383766796197   -0.09935478887310
H        -4.51853898355241   -0.49846752274164   -0.74995369389874
H        -3.38969339230688    2.85314488209388    1.64113738973266
H        -1.22391933199688    1.70931072378162    2.06088493259607
Ir        0.42149999999992   -0.81650000000005    0.91330000000005
H         0.87260000000004   -2.23029999999997    1.54050000000003
B         0.40219021167497    0.46665203345242   -0.71627209281429
O         0.10697679262354   -0.02264468339252   -1.97626403446310
C        -0.19053448784325    1.05700038232716   -2.86884768151842
C         0.42400120082650    0.77288190398336   -4.23796985161225
H         1.48787559084672    0.57682645174441   -4.15556815632623
H         0.25911772271970    1.61552823972944   -4.90438504066341
H        -0.05202741574816   -0.10880596222593   -4.66109242250161
C        -1.71846984555121    1.11541619412463   -3.01208601880500
H        -2.01795862674548    1.88687384864515   -3.71531513627797
H        -2.07162767893123    0.15103714516278   -3.37172430454790
H        -2.18004490813246    1.30260210053390   -2.04499240605076
C         0.39627006731315    2.29868839321854   -2.11626868048832
O         0.46408900604283    1.84170201678157   -0.75839329556415
C         1.82830606904317    2.63077163786687   -2.55318810944005
H         2.46079128047464    1.75890925156832   -2.40830630261595
H         1.85861142979877    2.95297047996355   -3.58989173378103
H         2.21190061236271    3.43023622322312   -1.92406485635206
C        -0.45827812520887    3.56306172349347   -2.19068756513458
H        -1.42926753996462    3.41069286735199   -1.72964544391649
H         0.04688797541332    4.36330536133574   -1.65546538125916
H        -0.59072525929362    3.86321391713499   -3.22680349515977
B         1.44226090944231    0.71873532604144    1.89940437924216
O         2.77670256163452    1.02399407560256    1.93279060638242
C         2.95855774127129    2.36269174320632    2.41075346550086
C         4.22484476792605    2.45932003579750    3.25845845128087
H         4.21250573529027    1.74311490091657    4.07209119292578
H         5.08499239368378    2.24595179519482    2.63006312279076
H         4.32350096379946    3.46410225671492    3.66115131361455
C         3.11456273669865    3.24228801223664    1.16450660276881
H         3.27463628683309    4.28459112897573    1.42470165528750
H         3.96722235301483    2.87684069057369    0.59802889573462
H         2.23103213410742    3.13183212368543    0.54148731840184
C         1.62275477708687    2.63790970598102    3.18018962841398
O         0.73359511654077    1.66764084763625    2.61223099077466
C         1.04482407165886    4.03782313661534    2.97798271630071
H         0.77488152087422    4.19214644660288    1.93860748209590
H         0.14899162532175    4.14748762094552    3.58461455874559
H         1.76806397803275    4.78888071159645    3.28384848438368
C         1.71714620755487    2.34344195161835    4.68235014578959
H         2.07657581461781    1.32967762066698    4.83670454912038
H         2.37270020431921    3.05114895965873    5.18067900766752
H         0.72250484830025    2.41374987302087    5.11683536243980
B         2.27820000000087   -1.33090000000088    0.17409999999860
O         2.49316704701824   -2.65864015377023   -0.16235752831712
C         3.77603008280413   -2.83364378891802   -0.77221428913680
C         4.66879273149716   -3.53483390717885    0.25763030819583
H         4.71296925792913   -2.93681586628600    1.16180905280077
H         4.22166421775314   -4.49344968857046    0.50967294461453
H         5.66775190888912   -3.70061810112333   -0.13300792234720
C         3.62812084648680   -3.73584629814684   -1.99872018157737
H         3.31673203437757   -4.72468007865603   -1.67086879543738
H         4.57771465305420   -3.82455879393211   -2.51863682050677
H         2.87442543251092   -3.35083836937052   -2.67764875618919
C         4.21627326758606   -1.35766586957996   -1.07878586856552
O         3.32225907308097   -0.57238068871779   -0.27595289585537
C         5.65992035014801   -1.02558018653010   -0.70489270399068
H         6.34709023211572   -1.65756157197306   -1.26059228449587
H         5.85598283921065    0.01354738894925   -0.95450782509026
H         5.82235786227654   -1.15236643185276    0.35942748886884
C         3.96897348887601   -0.95264059737665   -2.53831595775170
H         2.91736567230789   -1.08604982034579   -2.78025120449033
H         4.21291693451551    0.10123388717934   -2.65036154998435
H         4.58613772114504   -1.52937941071106   -3.22048026849860
H        -3.47167108406250   -4.70880541307331   -1.72750459845889
H        -5.07282331914755    1.72002349345890    0.17316306171645
C         0.23590000000217   -1.68139999999885    2.96030000000034
C        -1.07534473566709   -1.88834015302588    3.35785430680064
C         1.23593070299497   -1.66599110013870    3.95221607619517
C        -1.39602638085518   -1.95003358027014    4.70524854822611
H        -1.86696642737993   -1.99061700255042    2.63062921978531
O         2.51171555837789   -1.62243216859377    3.49582463813369
C         0.89481088339854   -1.72431648859318    5.29899075288341
C        -0.43282993717533   -1.85251536690689    5.68471412373513
Br       -3.23284122898260   -2.17758034326934    5.21166041445464
C         3.57580319911532   -1.40915216203298    4.40666027895511
H         1.64925694638181   -1.68284152183049    6.06905817310523
H        -0.69630175400704   -1.89201487791405    6.73025264507576
C         4.84146816653566   -1.21035416755954    3.58721688348549
H         3.67812959851432   -2.27045963448565    5.08332894236808
H         3.37412573550436   -0.51504218976010    5.01270694931178
H         5.16676693408639   -2.15769779393567    3.16755084004821
H         5.63445298894953   -0.80983974127743    4.21217745519914
H         4.61429712442825   -0.52112554193642    2.77737885096485
