107
 energy: -150.770982701000 gnorm: 0.014041924862 xtb: 6.4.1 (1a32961)
N        -0.96509999999997   -2.11530000000002   -0.24090000000001
C        -2.24699999999997   -1.69839999999992   -0.36219999999998
C        -3.14039999999996   -2.36820000000006   -1.21199999999993
C        -2.70220000000001   -3.47560000000002   -1.93050000000003
C        -1.37780000000001   -3.89879999999997   -1.78760000000005
C        -0.54290000000003   -3.18670000000001   -0.93509999999999
H         0.49809999999999   -3.45630000000000   -0.78940000000000
H        -0.99569999999999   -4.76030000000001   -2.32770000000002
H        -4.16499999999999   -2.02890000000000   -1.31830000000000
C        -2.62130000000003   -0.50949999999993    0.44100000000008
N        -1.62600000000001    0.07329999999996    1.16019999999998
C        -1.89679999999989    1.15240000000007    1.91690000000011
C        -3.17230000000000    1.70330000000000    1.99650000000005
C        -4.20510000000000    1.11739999999994    1.26269999999997
C        -3.92610000000002    0.00249999999995    0.47820000000005
H        -4.71959999999999   -0.46420000000000   -0.09520000000004
H        -3.34630000000000    2.57509999999991    2.62070000000001
H        -1.04449999999998    1.57419999999999    2.43690000000002
Ir        0.42150000000000   -0.81650000000000    0.91330000000000
H         0.87260000000000   -2.23030000000000    1.54050000000000
B         0.50669999999999    0.41560000000003   -0.81539999999999
O         0.19499999999998   -0.04699999999998   -2.09150000000002
C         0.00650000000001    1.10039999999987   -2.95429999999988
C         0.49019999999981    0.74740000000028   -4.35780000000002
H         1.51609999999994    0.37380000000001   -4.33700000000002
H         0.44730000000001    1.62239999999994   -5.01669999999999
H        -0.14740000000006   -0.03390000000004   -4.78430000000001
C        -1.50119999999999    1.39560000000009   -2.96670000000036
H        -1.75370000000003    2.21459999999997   -3.64850000000005
H        -2.03199999999998    0.49450000000001   -3.28930000000000
H        -1.85170000000000    1.65209999999997   -1.96220000000005
C         0.84229999999993    2.20670000000006   -2.22039999999998
O         0.75199999999999    1.78260000000002   -0.83690000000008
C         2.32930000000004    2.18619999999985   -2.59899999999996
H         2.74129999999999    1.18499999999997   -2.45750000000000
H         2.48869999999999    2.51299999999999   -3.63179999999995
H         2.87200000000001    2.86270000000002   -1.93199999999994
C         0.28439999999995    3.62289999999998   -2.33660000000001
H        -0.72650000000001    3.69039999999999   -1.92909999999998
H         0.92129999999994    4.31479999999996   -1.77610000000006
H         0.26429999999999    3.94809999999999   -3.38319999999993
B         1.56300000000004    0.60960000000004    1.84840000000001
O         2.92780000000002    0.55230000000000    2.15020000000000
C         3.36330000000003    1.88660000000003    2.50260000000002
C         4.53139999999999    1.78590000000003    3.47740000000001
H         4.27910000000001    1.16090000000001    4.33690000000002
H         5.39390000000000    1.33790000000001    2.97340000000001
H         4.82390000000000    2.77869999999996    3.83819999999999
C         3.79699999999999    2.56850000000000    1.19670000000000
H         4.20020000000000    3.57090000000000    1.37680000000000
H         4.56740000000000    1.95560000000000    0.72110000000000
H         2.95240000000001    2.63260000000000    0.50539999999999
C         2.05040000000003    2.50089999999993    3.09319999999999
O         1.03750000000002    1.81620000000000    2.31910000000003
C         1.89100000000000    4.00449999999999    2.88650000000000
H         1.87290000000000    4.25439999999999    1.82410000000001
H         0.94939999999999    4.34260000000002    3.33170000000001
H         2.71080000000000    4.55150000000003    3.36629999999998
C         1.82469999999995    2.13199999999992    4.56520000000003
H         1.92609999999999    1.05330000000001    4.71319999999999
H         2.52610000000004    2.65279999999999    5.22539999999997
H         0.80629999999998    2.41579999999999    4.84899999999998
B         2.27820000000001   -1.33089999999999    0.17409999999998
O         2.89460000000004   -2.57740000000001    0.38449999999999
C         4.26929999999996   -2.48200000000001   -0.07210000000024
C         5.10899999999999   -2.05379999999999    1.14009999999990
H         4.76349999999999   -1.08739999999998    1.51750000000000
H         4.98049999999999   -2.79470000000000    1.93590000000005
H         6.17420000000001   -1.99290000000000    0.89300000000006
C         4.71949999999998   -3.84659999999992   -0.58470000000011
H         4.75280000000000   -4.56129999999999    0.24419999999995
H         5.72329999999997   -3.78370000000000   -1.02010000000001
H         4.03500000000003   -4.23599999999997   -1.34169999999997
C         4.16440000000002   -1.36220000000002   -1.16299999999997
O         3.08520000000003   -0.55029999999997   -0.65400000000003
C         5.40720000000000   -0.48870000000000   -1.31549999999994
H         6.27319999999999   -1.09010000000001   -1.61529999999998
H         5.23300000000000    0.26929999999998   -2.08590000000003
H         5.64270000000002    0.02649999999998   -0.38240000000000
C         3.71800000000013   -1.89829999999997   -2.53110000000002
H         2.82530000000002   -2.52160000000000   -2.42739999999999
H         3.46090000000001   -1.05249999999992   -3.17550000000000
H         4.50569999999998   -2.48289999999996   -3.01789999999998
H        -3.38499999999996   -4.00130000000002   -2.59310000000005
H        -5.21400000000001    1.52080000000002    1.29959999999996
C         0.23590000000002   -1.68139999999999    2.96030000000002
C        -0.72659094215662   -1.91117287437659    3.92079852872272
N         1.43701142668492   -2.12100769470963    3.59142433213720
C        -0.14052274553623   -2.41183959268169    5.10432704016922
H        -1.77685722269696   -1.70884561769383    3.80406129225794
C         1.20085474191673   -2.53183248897914    4.86246261718892
O         2.76339560616734   -2.29503529478089    3.13798700342536
H        -0.62445390732102   -2.66721873956039    6.03092961957308
H         2.00637503311547   -2.89801128594401    5.47420568626389
Si        4.14744471032665   -3.07064173941177    3.80544843020392
C         3.70526333180472   -4.91392431516627    3.65195221842909
C         4.76523868799004   -1.83181627336245    5.11519139146000
C         6.00784064434658   -3.45986042129773    3.37239178049332
H         2.92309035184953   -5.28588650185064    4.30684005715941
H         4.58583191127004   -5.54039771152813    3.79155793379164
H         3.37012958664637   -5.07167097651738    2.62432677463538
H         4.07370545924511   -1.54155311883198    5.90045621267009
H         5.02966822723312   -0.93131040605425    4.55813031409488
H         5.68667984194308   -2.18082859138008    5.58009426328638
H         6.49738095203777   -3.94989110611230    4.21631615384352
H         6.61331344140631   -2.57621472041782    3.16176829945655
H         6.17592205174478   -4.13234292008055    2.52657939724944
