107
 energy: -150.873367268738 gnorm: 0.000287268576 xtb: 6.4.1 (1a32961)
N        -0.93732023652442   -2.01722151271371   -0.37574906814881
C        -2.18234064118327   -1.52660050032553   -0.52303691196171
C        -3.05163607172190   -2.04646672269777   -1.49034565418530
C        -2.63613974607965   -3.07692738698377   -2.30450172612892
C        -1.34660504500579   -3.57553914653532   -2.13915736457001
C        -0.54625090555689   -3.00998708611122   -1.16871916034966
H         0.46361908008499   -3.35958081066813   -1.01331153898293
H        -0.97849233078778   -4.38179894926965   -2.75255783354447
H        -4.04299586981929   -1.64173659251191   -1.61185956640650
C        -2.55529162748078   -0.43249877686287    0.36428456691661
N        -1.59146848686622    0.03116662884913    1.18577822584380
C        -1.88725428986127    1.02351416500303    2.02117458812225
C        -3.13136894391915    1.61684503971974    2.09080170746471
C        -4.13537720252986    1.15561426892565    1.24359282255594
C        -3.84031751227696    0.12496272723941    0.37791996265149
H        -4.60760513704744   -0.25089409526211   -0.27853817667602
H        -3.31606137215729    2.41359814578403    2.79304673315427
H        -1.07630580649982    1.34905381407903    2.65431883742579
Ir        0.42149999999976   -0.81650000000010    0.91329999999998
H         0.87259999999994   -2.23030000000003    1.54049999999991
B         0.39011727461115    0.59562754954496   -0.62282303137020
O        -0.39759537994564    0.37359100481516   -1.74031656745576
C        -0.46232696265670    1.55768863540050   -2.54016791487686
C        -0.41627878873576    1.18638109854470   -4.02027042619124
H         0.42413969641391    0.53227287955861   -4.22726899546507
H        -0.33927949208749    2.08414944650854   -4.62826153041822
H        -1.33011381020809    0.65926920772099   -4.28438438883857
C        -1.80417933579369    2.23708947483061   -2.22977669230845
H        -1.94473497774403    3.12644768222460   -2.83706513007859
H        -2.60740169088456    1.53328010639867   -2.43947729715937
H        -1.85446723993155    2.49939224998062   -1.17469569365213
C         0.76303621414382    2.38009240920314   -2.02574313346442
O         0.96182080690079    1.84622015840591   -0.71029028661862
C         2.04153569943562    2.08155222107301   -2.81847130254541
H         2.20806747973197    1.00714850236128   -2.83636700323162
H         1.98268400413356    2.47313551866156   -3.82991450137335
H         2.88147740908952    2.54427810688911   -2.30497105670987
C         0.54735779515686    3.89028848707117   -1.95431199802461
H        -0.23019723561005    4.14310351350352   -1.23994365731647
H         1.47080169302624    4.36727395984853   -1.63451962341727
H         0.27665989401816    4.27398762404697   -2.93480598720982
B         1.57528666035451    0.66731107554665    1.84765290666678
O         2.89694167541952    0.97172512693419    1.66461016002529
C         3.22960770077608    2.20274462315505    2.31781341871306
C         4.57821381653387    2.06232716914437    3.02223388880698
H         4.57261514502844    1.21172022005311    3.69373390217675
H         5.35050937169008    1.90183792399884    2.27461684743760
H         4.80806291939125    2.96909879273681    3.57550555556590
C         3.34387579885300    3.26774799758658    1.21938368583775
H         3.55148646465355    4.24927714936888    1.63496697203115
H         4.15609583503166    2.98770528298482    0.55245244192382
H         2.42555865567284    3.28419668973520    0.63893600177527
C         2.00948240377415    2.43097294533593    3.27675813940622
O         1.00866575795378    1.55984935753071    2.73427905179818
C         1.46844512515079    3.86037614904647    3.30133052554479
H         1.11950267056755    4.15811782270012    2.31793028144948
H         0.62907114533737    3.90979917244765    3.99089416865977
H         2.23957934173598    4.54720390243357    3.63944190748624
C         2.27657967835117    1.96717730020312    4.71409101880944
H         2.60247078325511    0.93118592125775    4.70754792318074
H         3.02268245476702    2.59177133183622    5.19570420829982
H         1.34773239711406    2.02704495978813    5.27716964612027
B         2.27819999999815   -1.33090000000096    0.17409999999890
O         3.42689433506068   -1.76237504824997    0.79295960568553
C         4.48939700755728   -1.88113330546463   -0.16543692123474
C         5.32150415283663   -0.59698998311511   -0.08489270909332
H         4.66845425783604    0.25823312642828   -0.23702295533544
H         5.74635478951365   -0.51837707048374    0.91173448215107
H         6.12676044279055   -0.60164571356627   -0.81341642680095
C         5.37110736231819   -3.08090776233288    0.17412143118817
H         5.85827422646326   -2.90095052077821    1.12730917767992
H         6.12856434285252   -3.20975872092576   -0.59433089949870
H         4.78783929318857   -3.99069124751263    0.26159538398048
C         3.71122010109275   -1.99817111756644   -1.51789033390245
O         2.45396739233213   -1.38328908280510   -1.20192571194452
C         4.35655555090947   -1.28260117561741   -2.70249406446225
H         5.34973505380841   -1.68404266410610   -2.88543595937408
H         3.74600019472050   -1.44123408198215   -3.58813039461790
H         4.42251791403130   -0.21540801052302   -2.52078770201882
C         3.41894500513595   -3.45295946983764   -1.91421248367447
H         2.96480616384861   -3.98411581966815   -1.08143790482387
H         2.71371533328773   -3.45014985670877   -2.74209335487389
H         4.32601688702305   -3.96351542680482   -2.22313635908410
H        -3.29594630518550   -3.48429324637877   -3.05567625934652
H        -5.12333013574907    1.59058202587924    1.26477829838484
C         0.23589999999913   -1.68140000000260    2.96030000000238
C        -1.00887980719267   -1.99027822719622    3.48310151583931
N         1.06405587699426   -1.55402506587950    4.02298910911646
C        -0.90907701661986   -2.00585069862249    4.88470222243951
H        -1.90084055369071   -2.18150125672799    2.91622748104968
C         0.40046037379876   -1.73693083963484    5.19025740625202
O         2.41535065713494   -1.34567277197123    3.96484085000297
H        -1.70125963771425   -2.19281370154567    5.58459251373028
H         0.90496483972019   -1.65008317640132    6.13057112958551
Si        3.50368879045118   -2.60195234646835    4.18217541099640
C         3.05280100244630   -4.07956803290564    3.07332557479815
C         3.47445725085083   -3.19814484122087    6.00417227537772
C         5.12854396983372   -1.71292983872027    3.79205998340862
H         2.08036291832003   -4.48500493874895    3.34221071997467
H         3.77666351941305   -4.88432758065935    3.14183622830077
H         3.00101285798834   -3.74739738928484    2.04243078511030
H         2.53523649130628   -3.68807193229132    6.24810445165159
H         3.60389238429401   -2.37209064935853    6.69855694128088
H         4.26924410630964   -3.91114768783683    6.19772536824369
H         5.93555605243474   -2.42049193939007    3.63808631888722
H         5.42805047568614   -1.04423519975447    4.59291754140781
H         4.99340892492457   -1.12996670401686    2.88886002304363
