99
 energy: -144.457384239772 gnorm: 0.000218216846 xtb: 6.4.1 (1a32961)
N        -0.79998170644160   -2.00501553900925   -0.48679706670200
C        -2.08726377949073   -1.62871620370315   -0.60089932369310
C        -2.94633264228545   -2.27226554728948   -1.50167627181894
C        -2.47479171369201   -3.29551230613203   -2.29402245864146
C        -1.13748270569357   -3.66378712959818   -2.17416164582310
C        -0.35342262884786   -2.99041654619515   -1.26104681959420
H         0.68994584747707   -3.24074928279877   -1.14199780634947
H        -0.72207120997592   -4.45818211336490   -2.77278047126680
H        -3.97998515624096   -1.97884007581468   -1.57913259319006
C        -2.52592401273567   -0.53500529979466    0.25639889464088
N        -1.62716876087744   -0.05558420882212    1.13809406100088
C        -2.00385756336422    0.91844841972456    1.95997330710715
C        -3.26106887218279    1.48837816085685    1.94969047984165
C        -4.18823710452590    1.02995461208597    1.01955276077532
C        -3.81270675557644    0.01153087988820    0.17112414684095
H        -4.51635877173962   -0.35351398945002   -0.55843300630366
H        -3.51004369651708    2.27193964273313    2.64732305867054
H        -1.24837797318240    1.26193147598235    2.64891457815266
Ir        0.42149999999980   -0.81649999999978    0.91330000000014
H         0.87259999999992   -2.23030000000016    1.54049999999993
B         0.49136604018236    0.68866220310287   -0.54110887709221
O        -0.43822921361095    0.68699877555102   -1.56642435876467
C        -0.36155842781900    1.91235961044237   -2.30095294109771
C        -0.55372339256737    1.63861473570353   -3.79084808437387
H         0.12150329522792    0.86101474437616   -4.13304406726996
H        -0.38237949694328    2.54765009762334   -4.36173994505939
H        -1.57359369951089    1.30302665885810   -3.96311284256283
C        -1.50633472336342    2.80290332980277   -1.79674348431795
H        -1.54008685183487    3.74588122729460   -2.33439434613680
H        -2.44700823987431    2.27584002147538   -1.94447297194490
H        -1.39084161013593    2.98729858310842   -0.73054200979520
C         1.04971940191664    2.45985777572948   -1.90644734651957
O         1.30611776657204    1.79298130379547   -0.66307985543173
C         2.15053118717738    2.01821774875670   -2.87926964818216
H         2.13396243358723    0.93553085252860   -2.97888012123105
H         2.03316247316973    2.48903457601645   -3.85097458265246
H         3.11386700173189    2.30289157811735   -2.46171757388984
C         1.12302935927837    3.97325195751882   -1.71112368381840
H         0.49201956977977    4.29220211219341   -0.88729468231152
H         2.14851131940639    4.25429814179728   -1.48289817360552
H         0.81542216056642    4.48203444038661   -2.62114092417123
B         1.43604750862832    0.67745906723336    1.97733244099931
O         2.79152645582910    0.77643651351809    2.17988315971494
C         3.12034621558519    2.03045108692026    2.78947421780352
C         4.20928353767485    1.81877832575650    3.83984295047201
H         3.91143278808535    1.07048241311738    4.56648900721536
H         5.11246874753946    1.47331237677866    3.34394195221314
H         4.42457213926870    2.75473143209235    4.34824274736728
C         3.65619673608516    2.93634068080480    1.67404470601378
H         3.88658972784986    3.93120490425429    2.04296418107496
H         4.56238774190234    2.49015277348314    1.27196560729822
H         2.92161233787342    2.98559305710769    0.87415638135388
C         1.74049597597032    2.50917820455440    3.35571357744389
O         0.80226514569666    1.73574273905644    2.59635853237363
C         1.44541937686991    3.99536934886201    3.16068261251450
H         1.41332708305196    4.24449896535372    2.10510625314328
H         0.47604482124889    4.22682469852435    3.59548806169705
H         2.20361530101853    4.59561644845550    3.65629340983532
C         1.53577240232210    2.14291888296786    4.83194948206619
H         1.68093431500107    1.07548198579063    4.97701947671409
H         2.21459218216184    2.69886951862931    5.47122462914265
H         0.51228204525069    2.38084459114123    5.11319786218987
B         2.27820000000144   -1.33089999999617    0.17410000000064
O         3.38819514851466   -1.69515834615951    0.91410017708454
C         4.52995299666115   -1.81467530145264    0.05379528656301
C         5.30197617021978   -0.49565263043657    0.15754578494787
H         4.65062604553451    0.32275267874639   -0.13751321927773
H         5.57759471092138   -0.34107495884504    1.19737867811263
H         6.19938885158865   -0.51071466032876   -0.45372240086594
C         5.41382011764703   -2.96736625515025    0.52561679844323
H         5.85697124003113   -2.70719495815946    1.48302445799761
H         6.20950886599383   -3.14402427472209   -0.19268524345726
H         4.83551512983741   -3.87595522546338    0.65684696288678
C         3.87211711264263   -2.01655377419487   -1.35194701753044
O         2.56543850072402   -1.44754846392569   -1.16978561873044
C         4.58216000882964   -1.31100970211488   -2.50477802281417
H         5.60763596562722   -1.66185546733162   -2.58293299828578
H         4.06218545960053   -1.53520633157035   -3.43290620602504
H         4.57406470101352   -0.23580101723370   -2.36303651228796
C         3.67822276136460   -3.49614107287923   -1.71198948813689
H         3.17395920389711   -4.01722488102571   -0.90191442588868
H         3.05340938191109   -3.55753164260221   -2.60012418247277
H         4.63060703668520   -3.97513198576533   -1.91768187334195
H        -3.12843333755134   -3.79843943511290   -2.99056340371221
H        -5.17753972068960    1.45878190370176    0.96227764555902
C         0.23589999999556   -1.68139999999762    2.96029999999933
N        -1.01205747954919   -1.89716545937488    3.31654847324585
C         1.24566271388845   -1.69957385908573    3.92780689446549
C        -1.32583529745720   -2.04382301269589    4.61292252241540
N         2.59782382268528   -1.60765090278456    3.81345103324716
C         0.92949575281317   -1.86253565139390    5.30285247883827
C        -0.41986140517643   -2.02772277957792    5.64624480969538
H        -2.38350209307812   -2.18915187098202    4.80273449088824
C         3.14351538150003   -1.68365251506815    5.05462701370642
H         3.06662326427948   -1.43887376988598    2.93158572271326
C         2.16500893001838   -1.84208383906563    5.99892954685555
H        -0.73296491949465   -2.15644544195190    6.67156622511431
H         4.20624982268168   -1.63131768390914    5.19568887158845
H         2.30229721645556   -1.93892756251359    7.05799935512898
