101
 energy: -151.811868023012 gnorm: 0.003798054278 xtb: 6.4.1 (1a32961)
N        -0.96510000000001   -2.11529999999998   -0.24090000000003
C        -2.24699999999999   -1.69840000000000   -0.36219999999998
C        -3.14039999999999   -2.36820000000001   -1.21200000000003
C        -2.70220000000002   -3.47560000000000   -1.93049999999999
C        -1.37780000000002   -3.89879999999997   -1.78760000000004
C        -0.54290000000000   -3.18670000000002   -0.93509999999996
H         0.49810000000000   -3.45630000000000   -0.78940000000000
H        -0.99570000000000   -4.76030000000001   -2.32770000000000
H        -4.16500000000000   -2.02890000000000   -1.31830000000000
C        -2.62130000000001   -0.50950000000000    0.44100000000001
N        -1.62600000000000    0.07330000000001    1.16020000000000
C        -1.89679999999998    1.15240000000001    1.91689999999999
C        -3.17230000000001    1.70329999999999    1.99650000000000
C        -4.20510000000001    1.11740000000000    1.26269999999999
C        -3.92610000000001    0.00250000000001    0.47819999999999
H        -4.71959999999999   -0.46420000000000   -0.09519999999999
H        -3.34630000000000    2.57510000000001    2.62070000000000
H        -1.04450000000000    1.57420000000000    2.43690000000000
Ir        0.42150000000000   -0.81650000000000    0.91330000000000
H         0.87260000000000   -2.23030000000000    1.54050000000000
B         0.50670000000000    0.41560000000002   -0.81540000000000
O         0.19500000000000   -0.04699999999999   -2.09150000000000
C         0.00649999999999    1.10039999999997   -2.95430000000001
C         0.49020000000000    0.74739999999999   -4.35780000000000
H         1.51609999999998    0.37380000000001   -4.33700000000000
H         0.44730000000000    1.62240000000000   -5.01669999999999
H        -0.14739999999998   -0.03390000000000   -4.78430000000000
C        -1.50120000000000    1.39559999999996   -2.96670000000002
H        -1.75370000000000    2.21460000000001   -3.64849999999999
H        -2.03200000000000    0.49450000000004   -3.28930000000000
H        -1.85170000000000    1.65210000000000   -1.96220000000000
C         0.84230000000003    2.20670000000003   -2.22040000000001
O         0.75200000000000    1.78260000000000   -0.83690000000000
C         2.32930000000000    2.18619999999998   -2.59899999999997
H         2.74130000000000    1.18500000000001   -2.45750000000000
H         2.48869999999999    2.51300000000001   -3.63180000000000
H         2.87200000000000    2.86269999999999   -1.93200000000000
C         0.28439999999999    3.62289999999999   -2.33659999999999
H        -0.72649999999997    3.69039999999999   -1.92910000000000
H         0.92130000000001    4.31480000000000   -1.77610000000000
H         0.26430000000000    3.94810000000001   -3.38319999999999
B         1.56300000000000    0.60959999999999    1.84840000000001
O         2.92779999999999    0.55230000000001    2.15019999999999
C         3.36330000000001    1.88659999999999    2.50259999999996
C         4.53139999999999    1.78589999999998    3.47740000000000
H         4.27910000000000    1.16090000000002    4.33690000000000
H         5.39390000000000    1.33790000000000    2.97339999999999
H         4.82390000000000    2.77870000000001    3.83820000000001
C         3.79699999999999    2.56850000000000    1.19669999999999
H         4.20020000000000    3.57090000000000    1.37680000000000
H         4.56740000000001    1.95559999999999    0.72109999999998
H         2.95240000000001    2.63260000000000    0.50540000000000
C         2.05040000000002    2.50089999999998    3.09319999999998
O         1.03749999999999    1.81620000000000    2.31910000000000
C         1.89099999999998    4.00449999999998    2.88649999999996
H         1.87290000000000    4.25440000000000    1.82410000000003
H         0.94940000000000    4.34260000000000    3.33170000000000
H         2.71080000000001    4.55150000000000    3.36630000000000
C         1.82470000000002    2.13200000000001    4.56519999999999
H         1.92610000000000    1.05330000000000    4.71320000000001
H         2.52609999999999    2.65280000000000    5.22539999999999
H         0.80630000000001    2.41580000000000    4.84900000000000
B         2.27820000000000   -1.33090000000000    0.17410000000000
O         2.89460000000000   -2.57740000000000    0.38450000000000
C         4.26930000000000   -2.48200000000000   -0.07210000000000
C         5.10900000000000   -2.05379999999999    1.14010000000000
H         4.76350000000000   -1.08740000000000    1.51750000000000
H         4.98050000000000   -2.79470000000001    1.93590000000001
H         6.17420000000000   -1.99290000000000    0.89300000000000
C         4.71950000000000   -3.84659999999999   -0.58470000000000
H         4.75280000000000   -4.56130000000000    0.24420000000000
H         5.72330000000000   -3.78370000000000   -1.02010000000000
H         4.03500000000000   -4.23600000000000   -1.34170000000000
C         4.16440000000001   -1.36220000000000   -1.16299999999999
O         3.08520000000000   -0.55030000000000   -0.65399999999999
C         5.40720000000000   -0.48869999999999   -1.31549999999996
H         6.27320000000000   -1.09010000000001   -1.61530000000000
H         5.23300000000000    0.26930000000001   -2.08589999999999
H         5.64270000000000    0.02650000000000   -0.38239999999998
C         3.71800000000000   -1.89830000000003   -2.53110000000000
H         2.82529999999999   -2.52159999999999   -2.42740000000000
H         3.46090000000000   -1.05249999999999   -3.17550000000000
H         4.50570000000000   -2.48290000000001   -3.01790000000000
H        -3.38500000000002   -4.00130000000000   -2.59310000000000
H        -5.21400000000000    1.52080000000000    1.29960000000000
C         0.23590000000000   -1.68140000000000    2.96030000000000
C        -1.01165079002880   -2.15019859584471    3.40049368115424
C         1.25122530503303   -1.69150852748195    3.94249412192363
C        -1.18379790566885   -2.52457517700292    4.72859642650462
H        -1.82321682445610   -2.29623999955146    2.70183929403113
C         1.06097762312784   -1.88758940461196    5.30293750063827
Br        3.10525282539213   -1.77202238305618    3.57486552414259
C        -0.18758439263887   -2.33556212563649    5.69350304283855
O        -2.19337330734778   -3.21485828505415    5.34847089570922
H         1.88287626946298   -1.85432830044772    6.00214496094059
N        -0.58537282009820   -2.89813374216025    6.87877671286743
C        -1.74067164526441   -3.42498786445170    6.62402303834139
C        -2.47489507513920   -4.27262238038922    7.58461555539799
H        -2.62369455043666   -5.26594088280674    7.15925909185226
H        -3.44633308584652   -3.84656162247357    7.83246932440708
H        -1.86321872741371   -4.34889503963837    8.48294613838008
