101
 energy: -151.843722325814 gnorm: 0.000329011493 xtb: 6.4.1 (1a32961)
N        -0.95191107145420   -1.99435627816774   -0.39860533069008
C        -2.18312513202261   -1.47887097916838   -0.56432541148395
C        -3.02579192707117   -1.93839476389164   -1.58358805988423
C        -2.59465933669175   -2.93663095687970   -2.43016957534315
C        -1.32071387320060   -3.46498145787664   -2.24301632546150
C        -0.54642584758647   -2.95760449314541   -1.21999819921962
H         0.45026545879602   -3.33399807761265   -1.03911563102549
H        -0.94168594529015   -4.24647120387008   -2.88093905049535
H        -4.00340530427205   -1.50733357536558   -1.72399220000039
C        -2.56526585404680   -0.40447497267492    0.34618634227317
N        -1.60011692414051    0.06678694646637    1.16190297472868
C        -1.89259639016083    1.06683949099838    1.98923592261395
C        -3.14243297630346    1.64577920703864    2.07197960386448
C        -4.15452760507234    1.16007244294142    1.24833708275075
C        -3.85817656941215    0.13204818759559    0.37906690443044
H        -4.63019144739761   -0.26114971917271   -0.26119705803745
H        -3.32618697388183    2.44664863647454    2.76967679627490
H        -1.07595028129854    1.40465850724868    2.60967999086287
Ir        0.42149999999993   -0.81650000000013    0.91330000000018
H         0.87259999999993   -2.23029999999983    1.54050000000013
B         0.31286710360073    0.63551628411214   -0.57769968171346
O        -0.27467199418336    0.35631488636138   -1.79656011823003
C        -0.48185542418219    1.57135800925355   -2.52754291497048
C        -0.17905876734332    1.34308717159704   -4.00556679150669
H         0.79616105439548    0.88494924991176   -4.13072874365378
H        -0.21183249295936    2.28737710397274   -4.54282001749072
H        -0.92646013970314    0.67317749183328   -4.42395094115206
C        -1.96168925517895    1.94865640735446   -2.36585937843319
H        -2.20506576785957    2.83516156932934   -2.94385736547186
H        -2.57273859529403    1.11810638352083   -2.71431519804823
H        -2.19359486460205    2.12173257960674   -1.31647149484126
C         0.47682400455670    2.56875638153608   -1.80093035041629
O         0.60194339175698    1.97933863219740   -0.49880040361494
C         1.88055494180847    2.57850903251683   -2.41745848721246
H         2.26396717629497    1.56121250821965   -2.44878502186948
H         1.87304444475341    3.01577287690379   -3.41159311684160
H         2.53802898686922    3.16081258110298   -1.77687536730650
C        -0.04359979060510    3.99936044917840   -1.68228755914855
H        -0.94485682610222    4.04332271839591   -1.07813001805883
H         0.71420173130560    4.61706143713692   -1.20618628543936
H        -0.25087557264505    4.40139239784893   -2.67065748856434
B         1.57648022844891    0.67332279335385    1.82610552057667
O         2.80489106354037    1.16672096368211    1.49915269863389
C         3.12090965316787    2.33495107337889    2.27305459929203
C         4.49388561422665    2.13902832095342    2.92091983418501
H         4.53277236512378    1.20817866606469    3.47722371281321
H         5.24715863807484    2.09121829000600    2.13916268923413
H         4.72484834064078    2.97195569841886    3.57759531248384
C         3.19689450572562    3.50886210644815    1.29119037121225
H         3.37822349726839    4.44536587457525    1.80952561531448
H         4.01431238587619    3.32497856117585    0.59807292302698
H         2.27649918787346    3.56498331044824    0.71811811538641
C         1.92445272399832    2.43596230534863    3.29497604326741
O         1.04846881895306    1.37300896410654    2.88869932981805
C         1.12934157831464    3.74318117740428    3.21747617896446
H         0.70760876047584    3.87499867268683    2.22574017784252
H         0.31092880148294    3.69601574732828    3.93273073202429
H         1.75927790769953    4.59169325952928    3.46627000318686
C         2.31695271771245    2.19305624429175    4.75629228551926
H         2.84308057158820    1.25164347226474    4.87137785453751
H         2.94104646151379    3.00199945568083    5.12289216070278
H         1.41088661031779    2.14900759535407    5.35684914384771
B         2.27820000000010   -1.33090000000029    0.17409999999998
O         3.22125850770316   -2.14324623453236    0.75312664789061
C         4.44810896126084   -2.08233490834266    0.01012265508184
C         5.36602887957925   -1.11298447552537    0.75961126086638
H         4.86920979518684   -0.15138516806828    0.84897264939651
H         5.52382672622372   -1.49708206243123    1.76396840690506
H         6.32297302706437   -1.00687118182039    0.25909405367499
C         5.08973694355263   -3.46735892299429   -0.02657628875763
H         5.37321195858798   -3.74394571578427    0.98504614054756
H         5.97819301302475   -3.44880706890866   -0.65112434228645
H         4.39840837824533   -4.21530030680726   -0.40057494133058
C         3.97862884018410   -1.52472947174289   -1.37834812743869
O         2.71371579388524   -0.91784980629916   -1.06458720509926
C         4.90003150955395   -0.47313972979510   -1.99258869477185
H         5.89873319351551   -0.87917703468309   -2.12529182506370
H         4.50796177380333   -0.17964570713826   -2.96332267223922
H         4.94159552448759    0.40793001477300   -1.36173229899100
C         3.71066817366703   -2.62603905778218   -2.41272500227840
H         3.04409112562664   -3.37739762239980   -1.99838964688811
H         3.22161839373891   -2.18067499185778   -3.27566694974398
H         4.63740683555449   -3.09322381768227   -2.73132200107150
H        -3.23201803267870   -3.29600729779398   -3.22368499242228
H        -5.14972951989037    1.57605979276988    1.28880541341701
C         0.23590000000377   -1.68140000000185    2.96029999999846
C        -1.08883602183020   -2.02607758264677    3.23838322628538
C         1.12536082092892   -1.60775641398229    4.04100871293684
C        -1.47714296555303   -2.14229290570086    4.55652470018850
H        -1.80431828806013   -2.20889986846918    2.45214586380249
C         0.75762305959698   -1.72455797473594    5.36871687118680
Br        2.98781210668525   -1.41307901713695    3.73242425893055
C        -0.58101866771630   -1.97457388710287    5.62770793933706
O        -2.69873343652270   -2.43567902563926    5.09049138723514
H         1.47852982618143   -1.65017718421091    6.16583935473045
N        -1.28056846501139   -2.16495729593141    6.80136857353183
C        -2.48908185591236   -2.42772504909072    6.44197681415705
C        -3.62895497713268   -2.72051266708835    7.33637678303320
H        -4.00221413104289   -3.72447248380208    7.14079143853963
H        -4.43731281021667   -2.01569380140767    7.15057282160764
H        -3.29570175764908   -2.64423736518561    8.36570815849674
