108
 energy: -152.687974523384 gnorm: 0.000450507109 xtb: 6.4.0 (f63f532)
N        -0.94845101086755   -1.98413171780194   -0.37474889087555
C        -2.19126612157635   -1.48929861300832   -0.53205941762997
C        -3.09259841113583   -2.08117452546020   -1.42739134234950
C        -2.70185524073254   -3.16916785112814   -2.17575777118239
C        -1.40691597102971   -3.65775179469608   -2.01577229412137
C        -0.58135386065779   -3.03357429000000   -1.10479794514398
H         0.42762968175997   -3.38452529438122   -0.93953725247758
H        -1.05594504991567   -4.50455666311759   -2.58256910610043
H        -4.09202641619538   -1.69323943196154   -1.53619176877171
C        -2.52313980663683   -0.31377546977732    0.26073323747566
N        -1.57133346920368    0.12709484583591    1.11220353670799
C        -1.82842188712088    1.20197589001788    1.85609258480094
C        -3.01431666018168    1.90270651088725    1.79812191860917
C        -3.99858300469274    1.47273188314078    0.91032808106343
C        -3.74577157104887    0.35917421242070    0.13957905177607
H        -4.49270444175201    0.01622265254746   -0.55697088127358
H        -3.17132030781905    2.76101526257500    2.43112101559750
H        -1.03375223689968    1.50048175913549    2.52299038231960
Ir        0.42149999999997   -0.81650000000026    0.91329999999990
H         0.87259999999993   -2.23030000000004    1.54049999999994
B         0.36655577732261    0.64610112924592   -0.57199299302780
O        -0.19106239409202    0.36554757763794   -1.80395029702903
C        -0.31396997375513    1.56927572771468   -2.57156539612592
C         0.05466321440479    1.29132877882601   -4.02636791299002
H         1.01691539580981    0.79415504097686   -4.08901593594239
H         0.08518538931840    2.22145326641426   -4.58809041187343
H        -0.69531843932571    0.63870650454370   -4.46708616279663
C        -1.78393388677004    2.00664502821779   -2.49801078665428
H        -1.96040506622700    2.88545349048886   -3.11111121811169
H        -2.40891421303857    1.19147232201633   -2.85785074378180
H        -2.06369471528991    2.21737900630085   -1.46761547959777
C         0.64586999798560    2.54916875209447   -1.82161271290392
O         0.70156040666253    1.98037422805489   -0.50566757135974
C         2.07289564514892    2.50739420945629   -2.38097533719409
H         2.43170503638624    1.48083539972233   -2.36431558683550
H         2.11581618378186    2.91237539104560   -3.38782427911197
H         2.71929178265853    3.09540669591072   -1.73412427139918
C         0.16611724646194    3.99709983582444   -1.74740688454960
H        -0.76409205068442    4.07870687978110   -1.19307052841317
H         0.91762448141921    4.59607264877420   -1.23841804238593
H         0.02543357808287    4.39237793743594   -2.75019230667930
B         1.59579880085600    0.64013288076858    1.86327141238799
O         2.87157893145294    1.05030741183886    1.59119714076374
C         3.20972255781143    2.22785737982553    2.33925595641401
C         4.56628165497892    2.01759497401174    3.01572798493289
H         4.57448996617712    1.10507717354324    3.60279502873479
H         5.33138797963304    1.92683380074145    2.24915566977213
H         4.80670019171016    2.86570826860692    3.64971728144927
C         3.33034224204372    3.37099018888900    1.32536048938107
H         3.53749112511278    4.31673465397904    1.81669876420538
H         4.14591797727679    3.14091681435398    0.64354950732969
H         2.41542165621521    3.43712532287981    0.74395280789340
C         1.99939168496384    2.39056413152634    3.33402838370827
O         1.06564731624350    1.39765443017427    2.88495405850048
C         1.30285306813076    3.75289274267948    3.27423678664275
H         0.91118814279278    3.94036935751853    2.27946509636096
H         0.46999703967738    3.75022170936213    3.97392520962526
H         1.99037682041572    4.54536506669472    3.55435855358662
C         2.34021076628974    2.08506201152870    4.79722363517083
H         2.79659130892076    1.10608575327145    4.89664566899762
H         3.01095597441236    2.83762418187306    5.19988837488905
H         1.41866289991436    2.08810636100246    5.37536719900105
B         2.27819999999753   -1.33090000000491    0.17409999999918
O         3.18051878200733   -2.21070790661862    0.72280822973341
C         4.41807738565879   -2.16770962062549   -0.00204150025240
C         5.37038679208418   -1.28109542961123    0.80524997009293
H         4.91566662044694   -0.30411377117553    0.94171353963480
H         5.50258937517905   -1.72362323131836    1.78908040392424
H         6.33647725096187   -1.19064695736969    0.31917629514083
C         4.99732750824622   -3.57726238573908   -0.10337002239784
H         5.24380392549560   -3.92336702757569    0.89676202810221
H         5.90082343019668   -3.56521312100139   -0.70641158673344
H         4.28285333301280   -4.27071132160353   -0.53467675039968
C         3.99194070696713   -1.51928734047099   -1.36451339071306
O         2.75316322167038   -0.87028645872902   -1.03380221339587
C         4.97161092772355   -0.48585267987158   -1.91638738313517
H         5.95199148443889   -0.93315633544287   -2.05390975716614
H         4.61072773896282   -0.12919841966540   -2.87811227012321
H         5.04555083417236    0.36232004657259   -1.24445779819385
C         3.68437441755900   -2.55489666790619   -2.45439786047941
H         2.97148579303857   -3.28738667206247   -2.08570698087349
H         3.23382326506205   -2.04536577000697   -3.30283324146814
H         4.59061931862537   -3.05576979750605   -2.78101716811537
H        -3.38502447228816   -3.63110707327418   -2.87223715303158
H        -4.93756687109617    1.99874127961876    0.82643030124909
C         0.23590000000505   -1.68139999999714    2.96029999999407
C        -1.09420133089604   -1.96846960235756    3.27041474497009
C         1.12080647261156   -1.66412810752742    4.03089574855077
C        -1.55349547886560   -2.10976141981288    4.57374752084281
H        -1.81130444583308   -2.09269087522939    2.47064148419320
C         0.69743044678213   -1.79456073695057    5.34363174986848
Br        3.00002331826429   -1.52987313757016    3.75734908610167
C        -3.00252038123509   -2.41607768158000    4.82682295400149
C        -0.64261246869274   -1.99744702117143    5.61632598498936
H         1.42058332727895   -1.75456343648502    6.14391803452793
C        -3.36115430603365   -3.86991076206374    4.47107679054978
H        -3.62098575891009   -1.74709698033767    4.22288347784277
H        -3.23939627328131   -2.24005208887623    5.87779508705632
H        -0.97019179108955   -2.09703600340885    6.64025622535917
C        -2.62777596450497   -4.84798128099517    5.38503108199403
C        -4.87155323149657   -4.07686714413904    4.56787580239498
H        -3.04675417041155   -4.05835522818679    3.43778376295779
H        -2.92354662242311   -4.69312404001301    6.42058545793384
H        -1.55188792188317   -4.70879063274735    5.30790559660484
H        -2.86307367397823   -5.87399550346025    5.11079398687073
H        -5.21635756641579   -3.88012273685836    5.58095771321820
H        -5.13224954029263   -5.10088189563451    4.30981414977537
H        -5.39761050257137   -3.40783229914712    3.88966681111400
