114
 energy: -167.386352742640 gnorm: 0.002712241999 xtb: 6.4.1 (1a32961)
N        -0.96510000000003   -2.11529999999999   -0.24089999999998
C        -2.24700000000003   -1.69840000000009   -0.36220000000008
C        -3.14040000000005   -2.36820000000003   -1.21199999999997
C        -2.70219999999986   -3.47560000000009   -1.93050000000004
C        -1.37779999999993   -3.89880000000004   -1.78760000000005
C        -0.54289999999999   -3.18670000000008   -0.93509999999998
H         0.49809999999996   -3.45629999999999   -0.78940000000001
H        -0.99570000000002   -4.76029999999998   -2.32770000000000
H        -4.16500000000000   -2.02890000000000   -1.31830000000003
C        -2.62129999999998   -0.50950000000000    0.44099999999997
N        -1.62599999999999    0.07330000000002    1.16019999999997
C        -1.89679999999994    1.15239999999999    1.91690000000004
C        -3.17229999999997    1.70330000000005    1.99649999999999
C        -4.20510000000002    1.11740000000005    1.26269999999991
C        -3.92610000000002    0.00250000000004    0.47820000000008
H        -4.71959999999998   -0.46420000000002   -0.09520000000010
H        -3.34630000000001    2.57509999999994    2.62069999999993
H        -1.04450000000001    1.57420000000000    2.43690000000002
Ir        0.42150000000000   -0.81650000000000    0.91330000000001
H         0.87260000000000   -2.23030000000000    1.54050000000000
B         0.50670000000000    0.41559999999997   -0.81540000000001
O         0.19499999999999   -0.04699999999999   -2.09150000000001
C         0.00649999999998    1.10040000000000   -2.95429999999999
C         0.49020000000003    0.74739999999997   -4.35779999999997
H         1.51610000000001    0.37380000000000   -4.33700000000001
H         0.44730000000000    1.62240000000000   -5.01670000000001
H        -0.14739999999995   -0.03390000000005   -4.78429999999998
C        -1.50120000000017    1.39560000000001   -2.96670000000010
H        -1.75370000000001    2.21459999999998   -3.64850000000003
H        -2.03199999999998    0.49450000000000   -3.28929999999999
H        -1.85170000000000    1.65210000000001   -1.96220000000007
C         0.84230000000007    2.20670000000001   -2.22040000000001
O         0.75200000000001    1.78260000000000   -0.83690000000001
C         2.32930000000002    2.18619999999999   -2.59900000000000
H         2.74130000000000    1.18499999999999   -2.45750000000000
H         2.48870000000001    2.51300000000000   -3.63180000000000
H         2.87200000000002    2.86269999999998   -1.93199999999998
C         0.28440000000008    3.62289999999999   -2.33660000000004
H        -0.72650000000009    3.69040000000000   -1.92910000000001
H         0.92129999999999    4.31479999999996   -1.77610000000000
H         0.26429999999998    3.94809999999999   -3.38320000000001
B         1.56299999999999    0.60960000000001    1.84840000000000
O         2.92780000000001    0.55230000000001    2.15020000000000
C         3.36330000000003    1.88660000000000    2.50260000000004
C         4.53140000000001    1.78590000000000    3.47739999999995
H         4.27910000000001    1.16089999999999    4.33690000000002
H         5.39390000000002    1.33789999999999    2.97340000000001
H         4.82389999999999    2.77870000000002    3.83819999999999
C         3.79699999999999    2.56850000000001    1.19670000000001
H         4.20020000000000    3.57090000000000    1.37680000000002
H         4.56740000000000    1.95559999999999    0.72110000000002
H         2.95239999999999    2.63260000000000    0.50540000000000
C         2.05040000000000    2.50090000000000    3.09319999999998
O         1.03749999999999    1.81620000000002    2.31909999999997
C         1.89099999999999    4.00450000000000    2.88649999999999
H         1.87290000000001    4.25440000000000    1.82410000000000
H         0.94940000000003    4.34260000000000    3.33169999999999
H         2.71080000000003    4.55150000000002    3.36629999999998
C         1.82469999999994    2.13200000000001    4.56520000000002
H         1.92609999999999    1.05330000000000    4.71320000000000
H         2.52610000000001    2.65280000000001    5.22540000000006
H         0.80630000000006    2.41580000000002    4.84899999999999
B         2.27819999999999   -1.33089999999998    0.17410000000001
O         2.89460000000001   -2.57740000000000    0.38449999999999
C         4.26930000000006   -2.48199999999996   -0.07210000000000
C         5.10900000000001   -2.05379999999999    1.14010000000001
H         4.76350000000000   -1.08740000000001    1.51750000000000
H         4.98050000000000   -2.79470000000001    1.93589999999999
H         6.17420000000004   -1.99290000000000    0.89299999999998
C         4.71949999999991   -3.84659999999998   -0.58470000000004
H         4.75280000000001   -4.56130000000000    0.24419999999996
H         5.72330000000001   -3.78370000000000   -1.02010000000005
H         4.03500000000002   -4.23599999999999   -1.34170000000002
C         4.16439999999999   -1.36220000000004   -1.16300000000002
O         3.08520000000002   -0.55030000000000   -0.65399999999997
C         5.40720000000004   -0.48870000000003   -1.31549999999993
H         6.27320000000001   -1.09009999999998   -1.61529999999997
H         5.23299999999999    0.26929999999999   -2.08590000000003
H         5.64269999999998    0.02650000000000   -0.38240000000001
C         3.71799999999992   -1.89829999999998   -2.53109999999999
H         2.82530000000015   -2.52160000000002   -2.42740000000000
H         3.46090000000002   -1.05249999999999   -3.17549999999998
H         4.50570000000004   -2.48289999999996   -3.01789999999998
H        -3.38499999999996   -4.00130000000001   -2.59309999999999
H        -5.21399999999999    1.52080000000002    1.29960000000000
C         0.23590000000009   -1.68139999999999    2.96030000000000
C        -0.93888954433692   -2.23154318881579    3.47942023142113
N         1.37813966972619   -1.67488653304755    3.68524343785093
C        -0.94965800887158   -2.79964979443386    4.74040907346594
H        -1.84257884854846   -2.23596448975865    2.88434893066784
C         1.39061642822525   -2.23314733879132    4.88927726916327
C         0.24582257770376   -2.83610557247168    5.45987151384189
H        -1.84553930237220   -3.24681924609291    5.15223398569825
N         2.45689279658085   -2.41018641286177    5.78348090766998
C         0.62555361268803   -3.41143967402156    6.70105563209828
C         3.80670350306270   -2.05050361178742    5.95496195829601
C         1.93953004557091   -3.13658884928956    6.86440315369836
H         0.00403421283913   -3.97268666069363    7.37536933331770
O         4.25897464606199   -2.09537034110971    7.08109998984102
O         4.54073115752617   -1.73618981845788    4.88765858286010
H         2.59829065001349   -3.41128628859573    7.66946079560860
C         5.98791785314825   -1.57147328758762    5.09712932806938
C         6.60837537564714   -2.88204950130069    5.59659296789433
C         6.59444991082477   -1.24371971212363    3.72984793790818
C         6.30582514204861   -0.41564161023090    6.05373700574690
H         6.26582182409549   -3.71305058990846    4.97819797247988
H         6.34976312903768   -3.08054133730694    6.63496788684418
H         7.69236028161211   -2.80641304434620    5.51085016102005
H         6.75523858506203   -2.15066278546009    3.15147624000710
H         7.55241592404664   -0.74235065607530    3.86675257404448
H         5.92230944562279   -0.59064408508289    3.18100283024037
H         5.88950181996780   -0.58752447654393    7.04385740834682
H         5.91435849738416    0.52004878582020    5.65546559038194
H         7.38865090291287   -0.33173332032090    6.14370994795313
