15
 energy: -23.907182171088 gnorm: 0.000242652670 xtb: 6.4.1 (1a32961)
C        -0.96467338650432   -1.48131234200112    0.00965888997206
C        -2.11350908785967   -0.71242211983168    0.01014768600035
C        -2.02457849437050    0.68143782261667    0.01225783070400
N        -0.88923568397939    1.35886651201940    0.01414373087309
C         0.21082793664107    0.61675895230092    0.01366303120141
N         1.48905035022782    1.07309291334706    0.01524590017736
C         2.33800022441768   -0.00074918915008    0.01394357932433
C         1.62949688263270   -1.16426862499010    0.01131477781375
C         0.25325488602431   -0.80680343675143    0.01135672622774
H        -1.00924414907457   -2.56118988729332    0.00761536264589
H        -3.08670189527098   -1.17881304597154    0.00863624002436
H        -2.92059483321318    1.28818450327799    0.01257451650505
H         1.75645297906953    2.04299229060329    0.01718975476156
H         3.40088147520314    0.14450575538771    0.01492581864867
H         2.02818279605637   -2.15924010356378    0.00969615512037
