103
 energy: -150.353778613523 gnorm: 0.017221340326 xtb: 6.4.0 (f63f532)
N        -0.96510000000000   -2.11530000000000   -0.24090000000000
C        -2.24700000000000   -1.69840000000000   -0.36220000000000
C        -3.14040000000000   -2.36820000000000   -1.21200000000000
C        -2.70220000000000   -3.47560000000000   -1.93050000000000
C        -1.37780000000000   -3.89880000000000   -1.78760000000000
C        -0.54290000000000   -3.18670000000000   -0.93510000000000
H         0.49810000000000   -3.45630000000000   -0.78940000000000
H        -0.99570000000000   -4.76030000000000   -2.32770000000000
H        -4.16500000000000   -2.02890000000000   -1.31830000000000
C        -2.62130000000000   -0.50950000000000    0.44100000000000
N        -1.62600000000000    0.07330000000000    1.16020000000000
C        -1.89680000000000    1.15240000000000    1.91690000000000
C        -3.17230000000000    1.70330000000000    1.99650000000000
C        -4.20510000000000    1.11740000000000    1.26270000000000
C        -3.92610000000000    0.00250000000000    0.47820000000000
H        -4.71960000000000   -0.46420000000000   -0.09520000000000
H        -3.34630000000000    2.57510000000000    2.62070000000000
H        -1.04450000000000    1.57420000000000    2.43690000000000
Ir        0.42150000000000   -0.81650000000000    0.91330000000000
H         0.87260000000000   -2.23030000000000    1.54050000000000
B         0.50670000000000    0.41560000000000   -0.81540000000000
O         0.19500000000000   -0.04700000000000   -2.09150000000000
C         0.00650000000000    1.10040000000000   -2.95430000000000
C         0.49020000000000    0.74740000000000   -4.35780000000000
H         1.51610000000000    0.37380000000000   -4.33700000000000
H         0.44730000000000    1.62240000000000   -5.01670000000000
H        -0.14740000000000   -0.03390000000000   -4.78430000000000
C        -1.50120000000000    1.39560000000000   -2.96670000000000
H        -1.75370000000000    2.21460000000000   -3.64850000000000
H        -2.03200000000000    0.49450000000000   -3.28930000000000
H        -1.85170000000000    1.65210000000000   -1.96220000000000
C         0.84230000000000    2.20670000000000   -2.22040000000000
O         0.75200000000000    1.78260000000000   -0.83690000000000
C         2.32930000000000    2.18620000000000   -2.59900000000000
H         2.74130000000000    1.18500000000000   -2.45750000000000
H         2.48870000000000    2.51300000000000   -3.63180000000000
H         2.87200000000000    2.86270000000000   -1.93200000000000
C         0.28440000000000    3.62290000000000   -2.33660000000000
H        -0.72650000000000    3.69040000000000   -1.92910000000000
H         0.92130000000000    4.31480000000000   -1.77610000000000
H         0.26430000000000    3.94810000000000   -3.38320000000000
B         1.56300000000000    0.60960000000000    1.84840000000000
O         2.92780000000000    0.55230000000000    2.15020000000000
C         3.36330000000000    1.88660000000000    2.50260000000000
C         4.53140000000000    1.78590000000000    3.47740000000000
H         4.27910000000000    1.16090000000000    4.33690000000000
H         5.39390000000000    1.33790000000000    2.97340000000000
H         4.82390000000000    2.77870000000000    3.83820000000000
C         3.79700000000000    2.56850000000000    1.19670000000000
H         4.20020000000000    3.57090000000000    1.37680000000000
H         4.56740000000000    1.95560000000000    0.72110000000000
H         2.95240000000000    2.63260000000000    0.50540000000000
C         2.05040000000000    2.50090000000000    3.09320000000000
O         1.03750000000000    1.81620000000000    2.31910000000000
C         1.89100000000000    4.00450000000000    2.88650000000000
H         1.87290000000000    4.25440000000000    1.82410000000000
H         0.94940000000000    4.34260000000000    3.33170000000000
H         2.71080000000000    4.55150000000000    3.36630000000000
C         1.82470000000000    2.13200000000000    4.56520000000000
H         1.92610000000000    1.05330000000000    4.71320000000000
H         2.52610000000000    2.65280000000000    5.22540000000000
H         0.80630000000000    2.41580000000000    4.84900000000000
B         2.27820000000000   -1.33090000000000    0.17410000000000
O         2.89460000000000   -2.57740000000000    0.38450000000000
C         4.26930000000000   -2.48200000000000   -0.07210000000000
C         5.10900000000000   -2.05380000000000    1.14010000000000
H         4.76350000000000   -1.08740000000000    1.51750000000000
H         4.98050000000000   -2.79470000000000    1.93590000000000
H         6.17420000000000   -1.99290000000000    0.89300000000000
C         4.71950000000000   -3.84660000000000   -0.58470000000000
H         4.75280000000000   -4.56130000000000    0.24420000000000
H         5.72330000000000   -3.78370000000000   -1.02010000000000
H         4.03500000000000   -4.23600000000000   -1.34170000000000
C         4.16440000000000   -1.36220000000000   -1.16300000000000
O         3.08520000000000   -0.55030000000000   -0.65400000000000
C         5.40720000000000   -0.48870000000000   -1.31550000000000
H         6.27320000000000   -1.09010000000000   -1.61530000000000
H         5.23300000000000    0.26930000000000   -2.08590000000000
H         5.64270000000000    0.02650000000000   -0.38240000000000
C         3.71800000000000   -1.89830000000000   -2.53110000000000
H         2.82530000000000   -2.52160000000000   -2.42740000000000
H         3.46090000000000   -1.05250000000000   -3.17550000000000
H         4.50570000000000   -2.48290000000000   -3.01790000000000
H        -3.38500000000000   -4.00130000000000   -2.59310000000000
H        -5.21400000000000    1.52080000000000    1.29960000000000
C         0.23590000000000   -1.68140000000000    2.96030000000000
C        -1.14725430231498   -1.95270844406442    3.29169029820639
C         1.11719466745487   -2.08483230633367    3.96444149344601
C        -1.52594349631847   -2.40421266542009    4.55393689062254
O        -2.23677823279581   -1.93423440685779    2.42677304994405
C         0.71242710833545   -2.61279355767999    5.18559252355072
H         2.17613515902637   -2.02306221705889    3.75599915219295
C        -0.61875605006144   -2.75661178481779    5.52750933083851
H        -2.56999979540283   -2.59950393195028    4.75913681317018
C        -3.53173812249585   -1.47634627469336    2.86849530593998
Br        1.98579874335367   -3.30011162492137    6.41466895669317
H        -0.97162371451903   -3.17893493380265    6.45803086712609
C        -4.71924538440683   -1.95390607216255    2.02691720912081
H        -3.50249778896367   -0.38292278854789    2.88729980654109
H        -3.76822701714027   -1.76487813845299    3.89415247719102
H        -5.25350847394117   -2.77627967117606    2.50045510500701
H        -4.41959916947435   -2.28538235394409    1.03599386580881
H        -5.43167954482439   -1.13317679143777    1.91885070136674
