97
 energy: -137.733128383934 gnorm: 0.000311986390 xtb: 6.4.0 (f63f532)
N        -0.95992166245664   -1.96258494084903   -0.42492885468251
C        -2.15837635926092   -1.38057528304535   -0.63549372260322
C        -2.96979386647577   -1.76983856363976   -1.70719443469989
C        -2.54942477654629   -2.76885846265104   -2.55769099531201
C        -1.31486837165420   -3.36958784852643   -2.32203722830113
C        -0.56573143703636   -2.92719439244140   -1.25258750618213
H         0.39827728885616   -3.36341593150939   -1.02991732860051
H        -0.94900420793416   -4.15842092700727   -2.95908632787940
H        -3.91617592943687   -1.28474781704446   -1.88249454885266
C        -2.53385240429984   -0.33149166920388    0.30371092666640
N        -1.58862422655244    0.04368155919872    1.19327000384069
C        -1.88849728526753    0.98502216366350    2.08504777869051
C        -3.11567874994650    1.61375259173823    2.14514060970651
C        -4.09771552483990    1.24517991699884    1.22875246498954
C        -3.80084289039274    0.26466639758542    0.30632495611788
H        -4.55239873759875   -0.04519009959566   -0.40087965386044
H        -3.30477043443933    2.36786481636457    2.89183407560507
H        -1.09478064104083    1.24036198162409    2.76981530871783
Ir        0.42150000000003   -0.81649999999985    0.91330000000002
H         0.87259999999995   -2.23030000000004    1.54049999999994
B         0.46236084047427    0.56640166249498   -0.65493875874299
O        -0.16454413013313    0.24453311475561   -1.84779978345526
C        -0.21228124082574    1.38653051030272   -2.70637390934811
C         0.06232298334256    0.95514178364923   -4.14512834378389
H         0.98024087633354    0.37976767242712   -4.20455878524108
H         0.13267434823706    1.82604429121255   -4.79175419797147
H        -0.75546705605409    0.32609438053936   -4.48924881192495
C        -1.63540621206019    1.95639073390422   -2.61462793473962
H        -1.76205670178263    2.80714226960723   -3.27749362636797
H        -2.33921469197531    1.17616067067197   -2.89807673878276
H        -1.85424502559331    2.25156706774101   -1.59046697918522
C         0.86376157100655    2.33133029864866   -2.07711552362356
O         0.95012602739511    1.85134343539266   -0.72874628402227
C         2.24946048665662    2.14067508940446   -2.70620701732078
H         2.54013033289598    1.09731134912944   -2.61123033668325
H         2.25955544885669    2.44959541499315   -3.74758956839429
H         2.97096087264426    2.73775937749530   -2.15331541844194
C         0.50123018690594    3.81535656585746   -2.08066030029676
H        -0.38662894737042    4.00602130598990   -1.48573047397232
H         1.32374552774385    4.38333478295343   -1.65234472148340
H         0.33526238700429    4.15512913216539   -3.09988517134371
B         1.58621929703148    0.65939682026076    1.81806012042540
O         2.95576194478024    0.74208877677209    1.90319882277771
C         3.34326015915785    2.05587146605726    2.32923306186742
C         4.51933218783279    1.95893364185126    3.30022479418307
H         4.29386625852621    1.28901701026616    4.12326844196576
H         5.38461040090654    1.56522687139571    2.77273437967442
H         4.76486654719371    2.94367787167437    3.68882008856771
C         3.78198792590520    2.80905665904643    1.06773720313246
H         4.07661161109150    3.82995358681756    1.29208955004971
H         4.62781168059533    2.28566167150196    0.62765884592381
H         2.96723327104970    2.79243175064574    0.34883659499342
C         2.01895194670198    2.62561339471483    2.94686063393210
O         1.01343019179834    1.77321656891848    2.38524461311921
C         1.70969305639250    4.07454689182118    2.57253488683307
H         1.56374892939232    4.16550932146136    1.50142674551564
H         0.79188702304327    4.38160818368692    3.06787225423796
H         2.51689086810035    4.72773361692221    2.89269640364643
C         1.94702262967309    2.47117916172368    4.47157207470256
H         2.10409951753858    1.43262568463627    4.74909927397630
H         2.68085744663858    3.10205250423433    4.96369101830162
H         0.95291435086412    2.75911323563586    4.80554183449957
B         2.27819999999998   -1.33089999999939    0.17410000000011
O         3.05999775715473   -2.35011789125012    0.68066989476204
C         4.35621088593824   -2.33476407195438    0.07209738554096
C         5.29838696261338   -1.65051632601755    1.06860711972203
H         4.89664314718072   -0.67185546422276    1.31622591560962
H         5.32094578416130   -2.24152871662597    1.98072589641357
H         6.30642571060574   -1.56649427465953    0.67416459801507
C         4.82601856466186   -3.76932596941637   -0.16824442487015
H         4.94443928710817   -4.26324399380126    0.79255169691482
H         5.78183108917842   -3.76801893953900   -0.68480334001036
H         4.10130286358205   -4.33136581510248   -0.74776920885037
C         4.11587528598812   -1.48662035393696   -1.22487144175525
O         2.90201482046899   -0.78129553308537   -0.92469127871652
C         5.22066626630552   -0.48201842634933   -1.54602931726713
H         6.17164703681151   -0.99386193576104   -1.66562421378663
H         4.97937537329715    0.03241885569188   -2.47286590306116
H         5.29803672099837    0.25868831236168   -0.75785870639426
C         3.84307238872243   -2.34748215296811   -2.46637657887671
H         3.03534049598098   -3.04628127712167   -2.26664635457217
H         3.52950028911892   -1.69654354520021   -3.27926546243574
H         4.73377537156048   -2.88890480426393   -2.77058592700849
H        -3.16353439396752   -3.07662386236371   -3.39041426712950
H        -5.07153357569224    1.71105660843657    1.24237533642073
C         0.23590000000133   -1.68140000000086    2.96030000000038
N        -0.90775950023323   -2.25634982057777    3.44029134822694
C         1.01628082663518   -1.35985735607050    4.05245355205261
C        -1.98575797892908   -2.82260317683515    2.67968998280508
C        -0.88457665525520   -2.24457499761791    4.80279790096955
C         0.29720271084911   -1.69093830182998    5.21562589360366
H         2.00014782049495   -0.93749912792181    4.00432315370997
H        -1.64044382846486   -3.05001749465437    1.67318839367259
H        -2.83197983100554   -2.13161507795469    2.61409459760731
H        -2.32752161282877   -3.74256851735718    3.15693948374146
H        -1.70686928403636   -2.63153454053106    5.37406649026759
H         0.61356792119879   -1.54863333657003    6.23206094772968
