105
 energy: -151.592634682863 gnorm: 0.000304836922 xtb: 6.4.1 (1a32961)
N        -0.88730579694264   -1.96468516588825   -0.46751688579474
C        -2.13403503310990   -1.47815534667587   -0.61937259851163
C        -2.95434532175274   -1.91177873983602   -1.66821487210536
C        -2.48937765719161   -2.85569024637355   -2.55708158543880
C        -1.20253222963916   -3.35878441329558   -2.38117140100573
C        -0.45063654548963   -2.87882614494633   -1.32969083469805
H         0.55423378041798   -3.23699353188852   -1.15646398676945
H        -0.79905844807237   -4.10130621691321   -3.05030982502218
H        -3.94276857361761   -1.50197242869771   -1.79698113025780
C        -2.55491139047341   -0.47030002140125    0.34559617458041
N        -1.60909629549193   -0.01883035966502    1.19638720666821
C        -1.94432566346443    0.90863110515552    2.09030712549639
C        -3.21501459682453    1.43462793956301    2.20229418125474
C        -4.20435785495264    0.97380945153306    1.33701472116737
C        -3.86619488443561    0.01859547155347    0.40314927298913
H        -4.61960825499758   -0.35706263572629   -0.26939021879806
H        -3.43174712161111    2.17798537837744    2.95229032111945
H        -1.14305774364151    1.23712466700388    2.73408156175162
Ir        0.42149999999984   -0.81649999999986    0.91330000000073
H         0.87260000000000   -2.23029999999993    1.54050000000000
B         0.37336894756180    0.68509966656162   -0.54406988364894
O        -0.34579086121980    0.49449588541337   -1.71320140199509
C        -0.49373693403643    1.73823811300064   -2.40535800710405
C        -0.36596243229453    1.51248755637299   -3.90965311475668
H         0.54567483749293    0.97284873840433   -4.14339749907606
H        -0.37070331647403    2.46586470505385   -4.43200463807287
H        -1.20971707894052    0.91855813784261   -4.25328198135531
C        -1.90408961701373    2.25906101445961   -2.09093705779755
H        -2.10887109345854    3.18583065628967   -2.61865563601031
H        -2.62897651482391    1.50771307130151   -2.39862413524191
H        -2.01404536882036    2.41379781771619   -1.01933500705608
C         0.63033047705266    2.61760641335892   -1.76723037471125
O         0.83930318121355    1.97947086001920   -0.50071581173849
C         1.95558533184404    2.52384597901001   -2.53320938586202
H         2.24481101696414    1.47917106680209   -2.62031312653658
H         1.87974339122610    2.98253565156556   -3.51489399514752
H         2.72582471158233    3.03494141568223   -1.96023136357016
C         0.26239675186931    4.08530492133977   -1.55856980561470
H        -0.56043289075726    4.18824997828869   -0.85783744829604
H         1.12145741181493    4.61410324193714   -1.15253946339299
H        -0.01043387332084    4.53908945586223   -2.50792280966116
B         1.54483782483939    0.64398423911650    1.89534423433324
O         2.90761696881446    0.81069424512934    1.90019433205738
C         3.25111307874025    2.06365009603840    2.51041169387732
C         4.49617359321688    1.89063293251672    3.37900456082121
H         4.36730627469485    1.08187160583539    4.09030271277567
H         5.34353057311465    1.64934928091920    2.74235980945014
H         4.71020409251529    2.81318781215429    3.91180326896688
C         3.55600040881147    3.03607848193387    1.36462869798460
H         3.80653952732324    4.02531646867402    1.73575809274620
H         4.39751156666212    2.64833798518826    0.79474990620934
H         2.69542493673914    3.08081627081910    0.70242887077929
C         1.94607308550588    2.43619456673834    3.29537221570937
O         0.95116440925596    1.62148625125125    2.66084107576848
C         1.53204240329776    3.90341559928920    3.19295705333775
H         1.31007135276908    4.16697587265422    2.16426147637010
H         0.63493790130625    4.06077629662595    3.78674543971032
H         2.32149307297099    4.54475494354708    3.57528493424934
C         1.99174459956916    2.02735939994599    4.77319269893561
H         2.22701092597098    0.97087185970057    4.86242776536356
H         2.71974797803956    2.61860711820821    5.31997444227657
H         1.00887027652271    2.18517873600855    5.21089068212075
B         2.27820000000069   -1.33090000000098    0.17410000000041
O         3.17126982188313   -2.22070611974317    0.72936529826178
C         4.43148037816745   -2.15515586533756    0.04970530383748
C         5.36991882057974   -1.34342139121109    0.94900430683671
H         4.90675268666670   -0.38531460576139    1.16600090002338
H         5.49156331765284   -1.87638424613179    1.88863724607664
H         6.34419852361142   -1.20672085607057    0.49017365960823
C         4.99176464542744   -3.56744684614801   -0.12095875106511
H         5.18875576741441   -3.98610887212401    0.86231563009272
H         5.92060124533535   -3.53547554412390   -0.68359810733593
H         4.28381412501672   -4.21621991123819   -0.62572067637517
C         4.07051071654421   -1.41849047433006   -1.28984874078372
O         2.79376461005868   -0.83084910277154   -1.00039215810757
C         5.04312134323586   -0.31121357926909   -1.69434847484626
H         6.04428882167514   -0.71269815807497   -1.82394657458711
H         4.71423676457871    0.12305308954906   -2.63520869399554
H         5.05322378654630    0.47323407375406   -0.94554063449446
C         3.87611941191933   -2.37141516192011   -2.47719914191805
H         3.15411433336637   -3.14373555474425   -2.22735514296158
H         3.48272450434632   -1.80389173628448   -3.31712203096557
H         4.81692877754560   -2.82825125050431   -2.76882288379503
H        -3.10893855973211   -3.19453026785350   -3.37354010903464
H        -5.21360311078820    1.35236924268860    1.39630455494287
C         0.23590000000202   -1.68139999999782    2.96029999999961
C        -1.02458056422720   -2.11857047077312    3.36430033989036
C         1.22428963320690   -1.56601051439098    3.93995506869676
C        -1.30698731398197   -2.36913515917437    4.69521818254064
H        -1.80854845116886   -2.28028910091262    2.63672860970731
C         0.94719368088881   -1.80965888578507    5.26902402229529
H         2.22576389964580   -1.29831529496535    3.63849693550942
C        -0.32365065565277   -2.22702639226565    5.67252480219855
H        -2.30642605924297   -2.67596563742142    4.97044050225140
H         1.71494294408171   -1.71405719099670    6.02211339938816
C        -0.56148589334675   -2.54527777292140    7.08341826101793
N         0.23942025949026   -1.95113769443253    7.97175083340560
C        -1.54301014956992   -3.45703723915134    7.48906101247465
C         0.08948961646574   -2.22260537809519    9.25375843606617
C        -1.69029144067006   -3.73614309779723    8.83454510657904
H        -2.15937433479629   -3.95571980396769    6.75792387304610
C        -0.85982662760095   -3.10351410983264    9.74881487812861
H         0.77158373791037   -1.70461258092280    9.91716610738625
H        -2.43692517571111   -4.44344235524838    9.16778207633414
H        -0.94087667646891   -3.29330631390892   10.80751437071746
