137
 energy: -185.365089552402 gnorm: 0.000331165428 xtb: 6.4.1 (1a32961)
N        -0.96509999999959   -2.11529999999971   -0.24090000000002
C        -2.24700000000025   -1.69840000000035   -0.36219999999958
C        -3.14039999999949   -2.36819999999977   -1.21199999999973
C        -2.70220000000022   -3.47559999999971   -1.93049999999968
C        -1.37779999999982   -3.89879999999984   -1.78759999999998
C        -0.54290000000056   -3.18670000000040   -0.93509999999947
H         0.49810000000011   -3.45630000000006   -0.78940000000000
H        -0.99569999999992   -4.76030000000009   -2.32770000000003
H        -4.16500000000015   -2.02890000000007   -1.31829999999998
C        -2.62130000000012   -0.50950000000048    0.44099999999997
N        -1.62600000000003    0.07329999999989    1.16020000000013
C        -1.89679999999997    1.15240000000045    1.91689999999994
C        -3.17229999999996    1.70329999999986    1.99650000000039
C        -4.20509999999994    1.11739999999972    1.26270000000028
C        -3.92609999999963    0.00249999999966    0.47820000000002
H        -4.71959999999996   -0.46419999999985   -0.09520000000000
H        -3.34630000000002    2.57509999999972    2.62070000000000
H        -1.04450000000012    1.57419999999993    2.43690000000016
Ir        0.42150000000006   -0.81649999999999    0.91330000000001
H         0.87260000000000   -2.23030000000000    1.54050000000001
B         0.50670000000014    0.41560000000028   -0.81539999999987
O         0.19500000000003   -0.04700000000064   -2.09149999999984
C         0.00650000000068    1.10039999999945   -2.95430000000003
C         0.49019999999959    0.74740000000036   -4.35779999999988
H         1.51610000000002    0.37380000000005   -4.33699999999997
H         0.44730000000004    1.62239999999994   -5.01670000000005
H        -0.14740000000025   -0.03390000000006   -4.78430000000009
C        -1.50119999999994    1.39559999999869   -2.96670000000024
H        -1.75370000000001    2.21460000000025   -3.64849999999980
H        -2.03200000000010    0.49450000000023   -3.28929999999998
H        -1.85170000000010    1.65210000000004   -1.96219999999988
C         0.84229999999992    2.20669999999991   -2.22039999999975
O         0.75199999999993    1.78259999999976   -0.83689999999980
C         2.32930000000028    2.18619999999995   -2.59900000000004
H         2.74130000000000    1.18499999999975   -2.45749999999999
H         2.48869999999990    2.51299999999996   -3.63179999999998
H         2.87200000000006    2.86269999999996   -1.93199999999992
C         0.28439999999983    3.62290000000007   -2.33659999999987
H        -0.72650000000003    3.69040000000008   -1.92910000000007
H         0.92129999999990    4.31480000000021   -1.77610000000002
H         0.26430000000002    3.94810000000006   -3.38320000000000
B         1.56299999999997    0.60960000000008    1.84839999999998
O         2.92780000000000    0.55229999999994    2.15019999999999
C         3.36330000000002    1.88660000000004    2.50259999999985
C         4.53140000000017    1.78589999999985    3.47740000000029
H         4.27909999999998    1.16090000000004    4.33690000000003
H         5.39389999999999    1.33789999999994    2.97340000000000
H         4.82389999999998    2.77870000000011    3.83820000000004
C         3.79700000000001    2.56850000000004    1.19670000000004
H         4.20019999999999    3.57090000000001    1.37680000000000
H         4.56739999999997    1.95560000000000    0.72110000000000
H         2.95240000000002    2.63259999999999    0.50540000000000
C         2.05039999999995    2.50089999999998    3.09320000000003
O         1.03749999999999    1.81619999999998    2.31909999999997
C         1.89099999999995    4.00449999999999    2.88649999999999
H         1.87290000000002    4.25440000000000    1.82410000000001
H         0.94940000000006    4.34260000000001    3.33170000000001
H         2.71079999999998    4.55150000000001    3.36629999999997
C         1.82469999999999    2.13200000000002    4.56519999999996
H         1.92610000000000    1.05330000000000    4.71320000000000
H         2.52610000000002    2.65280000000002    5.22540000000002
H         0.80630000000003    2.41579999999999    4.84899999999998
B         2.27820000000009   -1.33089999999995    0.17409999999997
O         2.89459999999989   -2.57740000000001    0.38449999999998
C         4.26929999999990   -2.48200000000009   -0.07209999999999
C         5.10899999999997   -2.05380000000002    1.14010000000002
H         4.76349999999999   -1.08739999999996    1.51750000000000
H         4.98050000000000   -2.79469999999999    1.93589999999997
H         6.17419999999995   -1.99290000000000    0.89300000000003
C         4.71950000000025   -3.84660000000007   -0.58469999999930
H         4.75280000000002   -4.56130000000023    0.24420000000025
H         5.72329999999926   -3.78370000000001   -1.02009999999996
H         4.03499999999984   -4.23599999999977   -1.34169999999949
C         4.16440000000015   -1.36220000000009   -1.16300000000058
O         3.08519999999987   -0.55030000000001   -0.65399999999993
C         5.40719999999961   -0.48869999999967   -1.31549999999982
H         6.27320000000017   -1.09009999999985   -1.61529999999990
H         5.23299999999995    0.26930000000027   -2.08589999999974
H         5.64269999999997    0.02650000000021   -0.38240000000025
C         3.71800000000089   -1.89829999999963   -2.53110000000020
H         2.82529999999945   -2.52160000000015   -2.42740000000000
H         3.46090000000023   -1.05250000000036   -3.17550000000018
H         4.50569999999983   -2.48290000000037   -3.01790000000000
H        -3.38500000000024   -4.00129999999985   -2.59309999999949
H        -5.21399999999989    1.52080000000010    1.29960000000014
C         0.23590000000021   -1.68139999999999    2.96029999999997
C        -0.78962639313222   -2.42891038832026    3.49472894074059
C         1.17120268724940   -1.55403410224297    4.00954014344122
N        -0.55289974868213   -2.70896399255138    4.81550266184266
H        -1.68509341537449   -2.80424668781871    3.02913405741771
C         0.66913048730753   -2.16361356898749    5.15122629638143
H         2.13281299171874   -1.07842450509528    3.94550748516747
C        -1.30105828540274   -3.70959753147151    5.53969663031413
C         1.47633451853895   -2.29842576892951    6.37042548801862
H        -1.59406477715607   -4.50485435979433    4.84973255129076
H        -2.20323747781351   -3.28937266750984    5.98888838925401
H        -0.67125849763141   -4.13991774270516    6.31611311510609
O         2.69394095945228   -2.44129939512008    6.24142760916346
N         0.91957523363266   -2.23449945861773    7.62901138685545
C         1.80532142459984   -2.50061551221550    8.76168311593929
C        -0.46931496327871   -1.89433345936119    7.89155846701698
C         1.60648560676776   -3.88678333430430    9.38036481490422
H         1.66531040223256   -1.72835331570333    9.51964975144541
H         2.82657988531650   -2.42210803301555    8.37831589088140
C        -0.68085503107022   -0.84211776407173    8.98781685645184
H        -1.01444330316812   -2.79615109640623    8.19525736376422
H        -0.89159144697684   -1.51522402497825    6.96252027969127
C         1.93078408105197   -5.01297702299086    8.39829379428162
H         0.58370648674152   -3.98567602265002    9.75127194482458
H         2.28256290759168   -3.95433841005047   10.23936273018359
C        -0.07838983116820    0.52801264993917    8.66968698737620
H        -0.28210606528994   -1.21044773279379    9.93606131337129
H        -1.76222461155492   -0.73442329126174    9.11886353487654
C         2.31396850102715   -6.32746337760693    9.08651760775754
H         2.77359145426155   -4.70028312044792    7.77341342180953
H         1.08537487276340   -5.18013694229161    7.72651121502367
C        -0.90233600480067    1.31824625909463    7.65415255338418
H         0.94126906602794    0.40592213405194    8.29656766067878
H        -0.02487742481973    1.10503721441927    9.59828760619129
C         1.21881988616032   -6.94180125049600    9.96111415132806
H         3.19761245814620   -6.14739674440281    9.70757129671169
H         2.59841870404010   -7.05135844420520    8.31638444915654
C        -0.48811894757863    2.78672720750847    7.60597687947079
H        -1.96067997727711    1.26098820787880    7.92670959008460
H        -0.78777950413933    0.87930893158345    6.65987620175920
C        -0.00065340804339   -7.39386687624146    9.16975571687945
H         0.91378272352571   -6.22368814594349   10.72642028972546
H         1.64423624273022   -7.80804476196092   10.47808623032757
C        -1.34907136210483    3.58947130768125    6.64129746752304
H         0.56246064031420    2.85485816118233    7.30665174082638
H        -0.57456241270685    3.21776263721247    8.60805871627807
H        -0.50666470215504   -6.54560911886429    8.71120294720150
H        -0.71152198906981   -7.89978798600615    9.82434087697884
H         0.29214313702905   -8.08692166447707    8.38023715551286
H        -1.27972360763934    3.17893094816252    5.63315117370528
H        -1.02699207289327    4.63033422886429    6.61254542730293
H        -2.39526252576507    3.56165177394722    6.94826442312969
