14
 energy: -19.332715680499 gnorm: 0.000521031221 xtb: 6.4.0 (f63f532)
C        -1.18941381618476   -1.17752612404778   -0.00155211694506
C        -1.79543852852648    0.07139059396031   -0.00260872680993
C        -0.97686708914515    1.18866026996999   -0.00336462598280
N         0.34522366480937    1.12599460227270   -0.00266800478074
C         0.93073236407646   -0.06535483563098   -0.00159163722477
C         2.42753243350061   -0.08510492047901   -0.00177341666772
C         0.19156998958996   -1.24871279975836   -0.00112332412423
H        -1.78588139930635   -2.07878204511225   -0.00094347073428
H        -2.86935986372791    0.17344897491682   -0.00234103818877
H        -1.39212900784101    2.18890457762857   -0.00321729336215
H         2.80433756131126    0.93304419208515   -0.00800699805738
H         2.79714762860154   -0.61243166109304   -0.87951154255167
H         2.79701332544672   -0.60101287220528    0.88284875071574
H         0.69918273739575   -2.20159795250685   -0.00077655528625
