111
 energy: -159.021360903435 gnorm: 0.000748329661 xtb: 6.4.1 (1a32961)
N        -0.96509999999995   -2.11529999999999   -0.24090000000007
C        -2.24700000000003   -1.69840000000002   -0.36219999999997
C        -3.14040000000000   -2.36820000000000   -1.21200000000000
C        -2.70219999999997   -3.47559999999999   -1.93050000000000
C        -1.37779999999998   -3.89880000000003   -1.78760000000005
C        -0.54289999999996   -3.18670000000001   -0.93510000000005
H         0.49810000000000   -3.45630000000000   -0.78940000000000
H        -0.99570000000000   -4.76029999999999   -2.32769999999999
H        -4.16500000000000   -2.02889999999999   -1.31830000000002
C        -2.62130000000061   -0.50949999999987    0.44100000000012
N        -1.62599999999984    0.07330000000007    1.16019999999992
C        -1.89679999999997    1.15240000000000    1.91690000000009
C        -3.17230000000000    1.70329999999996    1.99650000000002
C        -4.20510000000000    1.11739999999994    1.26270000000002
C        -3.92610000000057    0.00250000000001    0.47819999999998
H        -4.71960000000030   -0.46420000000000   -0.09520000000001
H        -3.34630000000001    2.57510000000002    2.62070000000000
H        -1.04449999999999    1.57419999999999    2.43689999999999
Ir        0.42150000000000   -0.81650000000000    0.91330000000000
H         0.87260000000000   -2.23030000000000    1.54050000000000
B         0.50670000000000    0.41560000000000   -0.81540000000000
O         0.19500000000000   -0.04700000000000   -2.09150000000000
C         0.00650000000000    1.10040000000000   -2.95430000000001
C         0.49019999999999    0.74740000000000   -4.35780000000000
H         1.51610000000002    0.37379999999999   -4.33700000000000
H         0.44730000000001    1.62240000000000   -5.01670000000000
H        -0.14740000000000   -0.03390000000002   -4.78429999999999
C        -1.50119999999998    1.39560000000001   -2.96670000000000
H        -1.75369999999999    2.21460000000000   -3.64850000000000
H        -2.03199999999999    0.49450000000000   -3.28930000000000
H        -1.85170000000000    1.65210000000000   -1.96220000000001
C         0.84229999999999    2.20670000000001   -2.22040000000000
O         0.75200000000000    1.78260000000001   -0.83689999999999
C         2.32930000000000    2.18620000000000   -2.59900000000008
H         2.74130000000000    1.18500000000001   -2.45750000000000
H         2.48870000000000    2.51300000000000   -3.63180000000000
H         2.87199999999999    2.86270000000000   -1.93200000000000
C         0.28440000000005    3.62289999999999   -2.33660000000000
H        -0.72649999999999    3.69040000000000   -1.92910000000000
H         0.92130000000000    4.31480000000000   -1.77610000000000
H         0.26430000000000    3.94810000000000   -3.38320000000000
B         1.56300000000000    0.60960000000001    1.84840000000001
O         2.92780000000000    0.55230000000000    2.15020000000000
C         3.36330000000001    1.88660000000000    2.50260000000000
C         4.53139999999999    1.78590000000000    3.47739999999997
H         4.27910000000001    1.16090000000000    4.33689999999997
H         5.39390000000002    1.33790000000000    2.97340000000002
H         4.82390000000001    2.77869999999999    3.83820000000000
C         3.79700000000000    2.56850000000000    1.19670000000001
H         4.20019999999999    3.57090000000001    1.37680000000001
H         4.56739999999999    1.95560000000000    0.72110000000000
H         2.95239999999998    2.63260000000000    0.50540000000002
C         2.05040000000002    2.50090000000001    3.09319999999997
O         1.03749999999998    1.81620000000000    2.31910000000001
C         1.89100000000000    4.00450000000001    2.88650000000001
H         1.87290000000000    4.25440000000001    1.82410000000000
H         0.94940000000000    4.34259999999999    3.33170000000000
H         2.71079999999999    4.55150000000001    3.36630000000001
C         1.82470000000000    2.13200000000000    4.56519999999997
H         1.92610000000000    1.05330000000000    4.71320000000000
H         2.52610000000000    2.65280000000001    5.22540000000000
H         0.80630000000002    2.41580000000000    4.84899999999999
B         2.27820000000000   -1.33089999999999    0.17410000000001
O         2.89460000000000   -2.57740000000000    0.38449999999999
C         4.26930000000000   -2.48200000000001   -0.07210000000001
C         5.10900000000002   -2.05380000000000    1.14010000000000
H         4.76350000000000   -1.08740000000000    1.51750000000001
H         4.98050000000000   -2.79469999999999    1.93590000000000
H         6.17419999999999   -1.99290000000002    0.89300000000001
C         4.71949999999998   -3.84660000000003   -0.58469999999998
H         4.75280000000000   -4.56129999999999    0.24420000000001
H         5.72330000000000   -3.78370000000000   -1.02009999999998
H         4.03499999999999   -4.23599999999999   -1.34169999999998
C         4.16440000000001   -1.36219999999999   -1.16299999999999
O         3.08520000000004   -0.55030000000000   -0.65400000000000
C         5.40719999999994   -0.48870000000001   -1.31549999999999
H         6.27320000000000   -1.09009999999999   -1.61530000000000
H         5.23299999999999    0.26929999999999   -2.08589999999999
H         5.64270000000000    0.02649999999999   -0.38239999999999
C         3.71800000000001   -1.89829999999999   -2.53109999999999
H         2.82530000000000   -2.52160000000000   -2.42740000000001
H         3.46089999999999   -1.05249999999999   -3.17550000000000
H         4.50569999999998   -2.48290000000001   -3.01789999999999
H        -3.38499999999998   -4.00129999999997   -2.59310000000003
H        -5.21400000000001    1.52080000000000    1.29960000000001
C         0.23590000000000   -1.68140000000000    2.96029999999999
N        -0.95729304996297   -2.16173190551181    3.32151887649345
C         1.28112077675940   -1.57892072009833    3.88386377792559
C        -1.18261353639767   -2.47537789713620    4.60538762453720
C         1.05500931137815   -1.87937236454579    5.21446147949922
H         2.26239476021123   -1.28448810421784    3.54007134962634
C        -0.20381889247756   -2.32632105706915    5.58757924764141
C        -2.47287063888526   -3.07134300740304    5.08765631582228
H         1.84728049372482   -1.80081262721521    5.94904417273339
H        -0.43497478402684   -2.60052216070464    6.60786334097779
O        -2.52407777303361   -3.49605218093871    6.24564001789225
N        -3.58400785002950   -3.13990173930567    4.29879340094612
C        -3.66829725411240   -2.78327640926267    2.89267195730437
C        -4.77568002701930   -3.73643487872991    4.89498173315131
C        -3.38786196237348   -3.98811611301250    2.00159049290141
H        -2.93848158496268   -2.00346559786759    2.68620161799408
H        -4.67740285059573   -2.39977319744157    2.71228581507908
C        -5.54784136741522   -2.72185931467550    5.72918633763462
H        -4.46005066863177   -4.56617227085137    5.53566078632211
H        -5.40141251207006   -4.12467072928646    4.08830236457257
H        -2.34249541965009   -4.27850279940207    2.09928530444980
H        -3.58298562458886   -3.73503180345302    0.96034341453444
H        -4.01522778108968   -4.83558368526486    2.27946630279581
H        -4.92363363543934   -2.37629105470362    6.55311094683930
H        -6.44482763883730   -3.18354866002144    6.14088586813250
H        -5.83505167058118   -1.86244041474314    5.12310497085375
