111
 energy: -157.733440518919 gnorm: 0.021453046634 xtb: 6.4.0 (f63f532)
N        -0.96510000000000   -2.11530000000000   -0.24090000000000
C        -2.24700000000000   -1.69840000000000   -0.36220000000000
C        -3.14040000000000   -2.36820000000000   -1.21200000000000
C        -2.70220000000000   -3.47560000000001   -1.93050000000000
C        -1.37780000000001   -3.89880000000000   -1.78759999999999
C        -0.54290000000000   -3.18670000000000   -0.93510000000000
H         0.49810000000000   -3.45630000000000   -0.78940000000000
H        -0.99570000000000   -4.76030000000000   -2.32769999999999
H        -4.16500000000000   -2.02890000000000   -1.31830000000000
C        -2.62130000000000   -0.50950000000000    0.44099999999999
N        -1.62600000000000    0.07330000000000    1.16020000000000
C        -1.89679999999999    1.15240000000001    1.91689999999999
C        -3.17230000000000    1.70330000000000    1.99650000000000
C        -4.20510000000000    1.11740000000000    1.26270000000000
C        -3.92610000000000    0.00250000000000    0.47820000000000
H        -4.71960000000000   -0.46420000000000   -0.09520000000000
H        -3.34630000000000    2.57510000000000    2.62070000000000
H        -1.04450000000000    1.57420000000000    2.43690000000000
Ir        0.42150000000000   -0.81650000000000    0.91330000000000
H         0.87260000000000   -2.23030000000000    1.54050000000000
B         0.50670000000000    0.41560000000000   -0.81540000000000
O         0.19500000000000   -0.04700000000000   -2.09150000000000
C         0.00650000000000    1.10040000000000   -2.95430000000000
C         0.49020000000001    0.74740000000000   -4.35780000000000
H         1.51609999999999    0.37380000000000   -4.33700000000000
H         0.44730000000000    1.62240000000000   -5.01670000000000
H        -0.14740000000000   -0.03389999999999   -4.78430000000000
C        -1.50119999999999    1.39560000000000   -2.96670000000000
H        -1.75370000000000    2.21460000000000   -3.64850000000000
H        -2.03200000000000    0.49450000000000   -3.28930000000000
H        -1.85170000000000    1.65210000000000   -1.96220000000000
C         0.84230000000000    2.20670000000000   -2.22040000000000
O         0.75200000000000    1.78260000000000   -0.83690000000000
C         2.32930000000001    2.18620000000000   -2.59900000000001
H         2.74130000000000    1.18500000000000   -2.45750000000000
H         2.48870000000000    2.51300000000000   -3.63180000000000
H         2.87200000000000    2.86270000000000   -1.93200000000000
C         0.28440000000000    3.62290000000000   -2.33660000000000
H        -0.72650000000001    3.69040000000000   -1.92910000000000
H         0.92130000000000    4.31480000000000   -1.77610000000000
H         0.26430000000000    3.94810000000000   -3.38320000000000
B         1.56300000000000    0.60960000000000    1.84840000000000
O         2.92780000000001    0.55230000000000    2.15020000000000
C         3.36329999999999    1.88660000000000    2.50260000000001
C         4.53140000000000    1.78590000000000    3.47740000000000
H         4.27910000000000    1.16090000000000    4.33690000000000
H         5.39390000000000    1.33790000000000    2.97340000000000
H         4.82390000000000    2.77870000000000    3.83820000000000
C         3.79700000000000    2.56850000000000    1.19670000000000
H         4.20020000000000    3.57090000000000    1.37680000000000
H         4.56740000000000    1.95560000000000    0.72110000000000
H         2.95240000000000    2.63260000000000    0.50540000000000
C         2.05040000000000    2.50090000000000    3.09320000000000
O         1.03750000000000    1.81620000000000    2.31910000000000
C         1.89100000000000    4.00450000000000    2.88650000000000
H         1.87290000000000    4.25440000000000    1.82410000000000
H         0.94940000000000    4.34260000000000    3.33170000000000
H         2.71080000000000    4.55150000000000    3.36630000000000
C         1.82470000000001    2.13200000000000    4.56520000000000
H         1.92610000000000    1.05330000000000    4.71320000000000
H         2.52610000000000    2.65280000000000    5.22540000000000
H         0.80630000000000    2.41580000000000    4.84900000000000
B         2.27820000000000   -1.33090000000000    0.17410000000000
O         2.89460000000000   -2.57740000000000    0.38450000000000
C         4.26930000000000   -2.48200000000000   -0.07210000000000
C         5.10900000000000   -2.05380000000000    1.14010000000001
H         4.76350000000000   -1.08740000000000    1.51750000000000
H         4.98050000000000   -2.79470000000000    1.93590000000000
H         6.17420000000000   -1.99290000000000    0.89300000000000
C         4.71950000000000   -3.84660000000000   -0.58470000000000
H         4.75280000000000   -4.56130000000000    0.24420000000000
H         5.72330000000000   -3.78370000000000   -1.02010000000000
H         4.03500000000000   -4.23600000000000   -1.34170000000000
C         4.16440000000000   -1.36220000000000   -1.16300000000000
O         3.08520000000000   -0.55030000000000   -0.65400000000000
C         5.40720000000001   -0.48870000000000   -1.31550000000000
H         6.27320000000000   -1.09010000000000   -1.61530000000000
H         5.23300000000000    0.26930000000000   -2.08590000000000
H         5.64270000000000    0.02650000000000   -0.38240000000000
C         3.71800000000000   -1.89830000000000   -2.53110000000000
H         2.82530000000000   -2.52160000000000   -2.42740000000000
H         3.46090000000000   -1.05250000000000   -3.17550000000000
H         4.50570000000001   -2.48290000000000   -3.01790000000000
H        -3.38499999999999   -4.00129999999999   -2.59310000000000
H        -5.21400000000000    1.52080000000000    1.29960000000000
C         0.23589999999999   -1.68140000000000    2.96029999999999
C        -0.66398040956333   -2.37868622155877    3.75758066810485
C         1.53780354984665   -1.51185803265668    3.70227122605660
C        -0.50466044511794   -2.56684880608502    5.13463581406382
H        -1.53508350368914   -2.83105145115934    3.29942735495855
N         1.54693129941883   -1.46160446318030    5.03785394154844
C         3.08096426877986   -1.63458529721685    3.37366389701344
C         0.54990177076976   -1.94411147653672    5.76756675191464
H        -1.16305036952175   -3.21158021242975    5.69976715501596
C         4.30080976952878   -1.18431562004051    4.31725964015350
H         3.22869317438674   -1.28166587919276    2.36246048714086
H         3.18756875778934   -2.72449511834410    3.32181792833348
H         0.71486588013733   -1.92101766024302    6.83950001111304
C         5.66153233986448   -0.43353396585527    4.09716630099839
H         4.64833967930262   -2.11149904612336    4.78833644557573
H         3.84109381405075   -0.61731491789464    5.13354198967072
C         6.58868461263403   -0.43866903638126    3.03753137131205
C         6.07884063825639    0.50372062863183    5.07529696922940
C         7.45151287734687    0.62030266190705    2.73884756972818
H         6.65950042944806   -1.25822741810598    2.35195292308572
C         6.96575020857359    1.55303637361982    4.83136958285547
H         5.58047021028343    0.54415941445459    6.03684839681887
C         7.56987294662672    1.70654873234240    3.59026571627910
H         7.98012320501412    0.63206217401327    1.79118661094662
H         7.10693912673703    2.33189116364956    5.57190948927146
H         8.08742977949224    2.61536896552627    3.30030872813904
