97
 energy: -137.732220368632 gnorm: 0.000228265219 xtb: 6.4.0 (f63f532)
N        -0.87512153058252   -2.04206418918153   -0.38279402902037
C        -2.13751293814708   -1.59876293213829   -0.55284275291615
C        -3.00044163523568   -2.21848539980000   -1.46765096523930
C        -2.55871083928380   -3.28757397541596   -2.21348819536282
C        -1.24834977379133   -3.72940823765859   -2.03290868645293
C        -0.45958987898300   -3.07576906955792   -1.11136586928970
H         0.55965900789745   -3.38898080740528   -0.93238456267667
H        -0.85983280483019   -4.56359160258166   -2.59452185954802
H        -4.01130852054255   -1.86598254624794   -1.59267062161593
C        -2.52966471721117   -0.45884552326087    0.25988750720558
N        -1.60172796309467    0.01112513467696    1.12479395625479
C        -1.92218989924727    1.04665562929693    1.89967095872389
C        -3.14672474369450    1.67917141002843    1.86115932388905
C        -4.10675755190232    1.21928936185514    0.96077404797808
C        -3.79033475906366    0.14509573629461    0.15947694840397
H        -4.51762622911539   -0.22350976138551   -0.54511617785006
H        -3.35170523770030    2.51092053364774    2.51586268543886
H        -1.14221426914330    1.37569630169415    2.56894816267027
Ir        0.42149999999995   -0.81650000000045    0.91330000000012
H         0.87259999999994   -2.23030000000017    1.54050000000038
B         0.42064197011603    0.61352106197060   -0.60541335611883
O        -0.20443505698465    0.30938462197955   -1.80381257028176
C        -0.29674634249573    1.47903405842019   -2.62107442195531
C        -0.02355694361549    1.11163729786338   -4.07771335232823
H         0.90616317034550    0.55906005220287   -4.16506434495379
H         0.02489136794305    2.00958574944109   -4.68852714323522
H        -0.82978922409997    0.48024110464919   -4.44398389756482
C        -1.73456342754071    2.00347560667774   -2.49279622500805
H        -1.89571338011739    2.86970216968165   -3.12770404379681
H        -2.42037152331746    1.21216144661991   -2.78986696185881
H        -1.94757238031532    2.26121313276969   -1.45704482089396
C         0.75656411828666    2.43371165870032   -1.96965416669801
O         0.85941725160913    1.91908814043211   -0.63584985229730
C         2.14605317520479    2.29374516358319   -2.60397029571000
H         2.45578750727611    1.25263429519523   -2.55293175614152
H         2.15282694159732    2.64670958164607   -3.63137872466839
H         2.85478752893321    2.87907905039755   -2.02260993404456
C         0.35748712208978    3.90781832640353   -1.93429377425192
H        -0.53236590109118    4.06143402546964   -1.33174602076526
H         1.16743181363653    4.48545343686890   -1.49520591550298
H         0.17813463587074    4.26814588984453   -2.94425779858412
B         1.54678291620014    0.64104227214315    1.89768059184293
O         2.91803057332522    0.75699484985664    1.95647893469331
C         3.28082216457608    2.03979183040857    2.48382409193962
C         4.50256676534314    1.90370313764500    3.39122276820494
H         4.34398627535102    1.14112530332888    4.14638187583698
H         5.36148346252496    1.61252800165331    2.79196732766715
H         4.71765246074450    2.85432525372071    3.87206040746724
C         3.63013548523988    2.92271941057456    1.27919363615078
H         3.90775856775561    3.92719663780902    1.58519670440181
H         4.46483193085631    2.47051607443735    0.74808800490957
H         2.77909371857581    2.94778499443776    0.60322385029748
C         1.96921911131863    2.49722063703170    3.20713914961070
O         0.96631533989655    1.69097970007630    2.57839276868601
C         1.61827654236265    3.97342319892992    3.02735051361621
H         1.42875779962989    4.19541997175150    1.98251565885918
H         0.71660637987047    4.19740653831623    3.59216895004453
H         2.42687762154099    4.59918467133170    3.39562118678405
C         1.95525272132032    2.15150220748048    4.70202645293629
H         2.15423361144405    1.09204250288337    4.83806665778008
H         2.68402032753322    2.74295638194117    5.24785457221148
H         0.96367820885818    2.35850135853011    5.09761078406876
B         2.27819999999964   -1.33090000000008    0.17409999999932
O         3.09432088562671   -2.32899211459780    0.66968408702001
C         4.38482417100695   -2.26845230279630    0.05191918015240
C         5.30928692114877   -1.55329820435094    1.04363637217917
H         4.87447282288875   -0.58996334159933    1.29571045088452
H         5.35943519973756   -2.14498403681192    1.95420633145625
H         6.31091272082803   -1.43295058559731    0.64230472018247
C         4.90291496619717   -3.68505491762148   -0.19526737987658
H         5.04610971311483   -4.17715067368589    0.76310535730974
H         5.85400633241337   -3.64854841081227   -0.71935644217999
H         4.19411473097091   -4.27086025881222   -0.77102831454899
C         4.10841591437075   -1.42576366523356   -1.24142661226766
O         2.87450669573238   -0.76252041278072   -0.93138250988371
C         5.17471470135029   -0.38075056572929   -1.56530493910541
H         6.14360906093122   -0.85620620980066   -1.69128445680897
H         4.90897742063939    0.12628844502889   -2.48962099503008
H         5.22762800575339    0.36093073035912   -0.77585724520152
C         3.85927467458675   -2.29164590050210   -2.48438795547093
H         3.07981575461375   -3.02137493697230   -2.28261503335497
H         3.51499536143590   -1.64984875435730   -3.29206835454195
H         4.76753165513702   -2.79804565969392   -2.79709098259002
H        -3.21321408747191   -3.77254587316855   -2.92194782396754
H        -5.07498860574020    1.69207917873395    0.89168676008041
C         0.23589999999949   -1.68139999999943    2.96029999999750
C        -0.99033646777404   -2.01561501590066    3.48659965603514
C         1.11596521788794   -1.57197134998577    4.06354633220448
N        -0.89679807290355   -2.07202939595045    4.84548627381713
H        -1.92533946767085   -2.21895231757370    2.99969682214303
C         0.38621580957819   -1.79654208869631    5.19978455667101
H         2.16399480172210   -1.35593916453150    4.00313939394690
C        -1.98233389242828   -2.31733282195117    5.75391662679873
H         0.68460515546520   -1.78972201661691    6.23067981917986
H        -2.46054169594152   -1.38046585651527    6.05563357258041
H        -1.60894236801892   -2.82186676052647    6.64483154974399
H        -2.72730232668410   -2.95006835824833    5.27253078497744
