97
 energy: -137.732587214237 gnorm: 0.000204391812 xtb: 6.4.1 (1a32961)
N        -0.88850822510218   -2.02655924275874   -0.37951940568031
C        -2.14854479312837   -1.57324013283091   -0.54295618303894
C        -3.02357435620632   -2.19040416784211   -1.44810784213907
C        -2.59623565439361   -3.26617222805468   -2.19246702025330
C        -1.28803200283619   -3.71798141122342   -2.01937256038640
C        -0.48732800080625   -3.06741830926406   -1.10620552652485
H         0.53025609931594   -3.38898497143348   -0.93251179760558
H        -0.91057551721953   -4.55777133009864   -2.58018266080782
H        -4.03280539922137   -1.83064948095042   -1.56578775232265
C        -2.52467492425871   -0.42628884775775    0.26651130254339
N        -1.58892605002281    0.03338019938912    1.12877935404317
C        -1.89437174948606    1.07530996116003    1.90156277304213
C        -3.10971615527436    1.72485369537222    1.86205959594496
C        -4.07703096923936    1.27634778920722    0.96337259984637
C        -3.77677629067158    0.19537436084148    0.16520729418013
H        -4.50946206295139   -0.16457725144716   -0.53835120187188
H        -3.30241769203848    2.56118996825433    2.51466973320995
H        -1.10951947246499    1.39482156519965    2.56965600006824
Ir        0.42150000000003   -0.81650000000000    0.91330000000018
H         0.87259999999995   -2.23030000000002    1.54050000000001
B         0.42813503782302    0.62181793698970   -0.59802365416223
O        -0.19473459742229    0.33015129088213   -1.80042289554741
C        -0.28021993191043    1.50716635809910   -2.60804575939435
C        -0.00443407769538    1.15184070183289   -4.06719782015136
H         0.92300045494948    0.59585629136340   -4.15715269299297
H         0.04998743195709    2.05537364728685   -4.66926397807721
H        -0.81244864159335    0.52779245391009   -4.44200923219201
C        -1.71621480267562    2.03647267983728   -2.47940240533897
H        -1.87203665134002    2.90830260245300   -3.10798837526452
H        -2.40458462226109    1.25045664370674   -2.78455957383080
H        -1.93115912215789    2.28712318213861   -1.44231530860218
C         0.77503792816307    2.45213160604527   -1.94559440817254
O         0.87226669897849    1.92610382307210   -0.61617490182760
C         2.16575741088538    2.31212280013213   -2.57738019963593
H         2.47109483640215    1.26933687185699   -2.53471674418370
H         2.17699454577637    2.67429710879149   -3.60153889335965
H         2.87520458236637    2.88916784294710   -1.98862158395287
C         0.38144230043976    3.92746198621098   -1.89938671862771
H        -0.50849168155898    4.07958152955558   -1.29656918505628
H         1.19301989432402    4.49867378294397   -1.45497376913617
H         0.20445237150102    4.29629098067167   -2.90670932607147
B         1.56398225473016    0.62275540642983    1.90523392542371
O         2.93741003579572    0.71161974620202    1.96958397419607
C         3.32215684144583    1.98522438209390    2.50333471275259
C         4.54197622866701    1.82383803620778    3.40900682580110
H         4.37176251762251    1.05727382132486    4.15747479075521
H         5.39657956165817    1.52520108525461    2.80720560409697
H         4.77115647595944    2.76701524259925    3.89794116244961
C         3.68398325601835    2.86929432786814    1.30326660651473
H         3.98076477114785    3.86668085337238    1.61452968456992
H         4.50847472405916    2.40531337214131    0.76646369223897
H         2.83141401502384    2.91404149532002    0.63016773504508
C         2.01860453894444    2.45930555674212    3.22953271053147
O         1.00170549781725    1.68096122536967    2.58783986707790
C         1.69843294387170    3.94450153763770    3.06948101428634
H         1.51570454792067    4.18506094809402    2.02754058902177
H         0.80041135459328    4.17950503509162    3.63563307476349
H         2.51937316779020    4.54790774860828    3.44775374733636
C         1.99421310415559    2.09148834589121    4.71881309002574
H         2.16398573366539    1.02481261683503    4.83684453468701
H         2.73790477826970    2.65432796560925    5.27455026249836
H         1.00804893389864    2.31892513046898    5.11642779722352
B         2.27819999999992   -1.33089999999938    0.17409999999970
O         3.07928754209125   -2.35143728421681    0.64816693506234
C         4.37011594579050   -2.29964270176254    0.03045744098168
C         5.30820108867953   -1.62438978891095    1.03718461512265
H         4.89083032884127   -0.65960599714772    1.31203517093290
H         5.34907286025556   -2.23812534370780    1.93350137321182
H         6.31128107513906   -1.51241832100365    0.63707330585075
C         4.86206299926761   -3.71954392265345   -0.24942679617629
H         4.99335404545986   -4.23680485225667    0.69731741432436
H         5.81505520019531   -3.68869750316258   -0.77040995691770
H         4.14379057609509   -4.27793870779711   -0.84044200145876
C         4.10770684842510   -1.42279364538321   -1.24297178995102
O         2.88497961586972   -0.74662662478496   -0.91757327341126
C         5.19144786453111   -0.38888855111114   -1.54389872629296
H         6.15125048721713   -0.87814641581702   -1.68576184926150
H         4.93155019206462    0.14628141557459   -2.45390994511749
H         5.26043014638997    0.33135164486836   -0.73612151847070
C         3.84412831348819   -2.25581229207553   -2.50534380401305
H         3.04936312727036   -2.97364368496864   -2.32125619898707
H         3.51481527588203   -1.58961459586213   -3.29940819391094
H         4.74273532558306   -2.77336353389666   -2.82748309442841
H        -3.25978531264811   -3.74902569953434   -2.89395161843814
H        -5.03817046439169    1.76336455249020    0.89320442019056
C         0.23590000000031   -1.68140000000173    2.96029999999909
C        -0.98898073993341   -1.99638958236938    3.49493709532965
C         1.13555204343090   -1.60826637074339    4.05488776982079
N        -0.86735827090297   -2.06866962898838    4.85436886118086
H        -1.93689705299505   -2.16981630501014    3.02242603376571
C         0.42941475687461   -1.83415155810423    5.20740771072053
H         2.18613555563648   -1.41143207909575    3.97543313491262
H        -1.61450097879568   -2.26655645852295    5.49857090437947
C         0.86761627526590   -1.86549864440962    6.63137441089375
H         0.67092176638798   -2.84112037880057    7.07679319605481
H         0.34342989830367   -1.11135755658869    7.21881304797720
H         1.93404968546975   -1.66894823010491    6.68793830258036
