116
 energy: -163.453201293423 gnorm: 0.013367494489 xtb: 6.4.1 (1a32961)
N        -0.96509999999999   -2.11530000000002   -0.24090000000001
C        -2.24700000000000   -1.69840000000005   -0.36219999999998
C        -3.14040000000000   -2.36820000000001   -1.21199999999995
C        -2.70219999999998   -3.47560000000005   -1.93050000000003
C        -1.37779999999998   -3.89880000000002   -1.78759999999999
C        -0.54290000000002   -3.18670000000000   -0.93509999999998
H         0.49810000000000   -3.45630000000001   -0.78940000000000
H        -0.99570000000001   -4.76030000000002   -2.32769999999998
H        -4.16500000000004   -2.02890000000001   -1.31829999999995
C        -2.62129999999999   -0.50950000000003    0.44100000000004
N        -1.62600000000000    0.07329999999998    1.16020000000004
C        -1.89680000000000    1.15240000000000    1.91690000000001
C        -3.17230000000003    1.70329999999999    1.99650000000004
C        -4.20510000000002    1.11739999999996    1.26270000000004
C        -3.92610000000000    0.00249999999991    0.47820000000001
H        -4.71960000000001   -0.46420000000003   -0.09519999999999
H        -3.34630000000002    2.57509999999998    2.62070000000005
H        -1.04450000000000    1.57419999999998    2.43689999999999
Ir        0.42150000000000   -0.81650000000001    0.91330000000001
H         0.87260000000002   -2.23030000000000    1.54050000000001
B         0.50670000000000    0.41560000000000   -0.81539999999998
O         0.19499999999998   -0.04700000000001   -2.09149999999999
C         0.00649999999998    1.10039999999998   -2.95429999999999
C         0.49019999999996    0.74739999999999   -4.35780000000000
H         1.51609999999997    0.37379999999998   -4.33700000000000
H         0.44729999999996    1.62240000000000   -5.01670000000000
H        -0.14740000000006   -0.03390000000004   -4.78429999999998
C        -1.50120000000001    1.39559999999998   -2.96669999999999
H        -1.75370000000005    2.21460000000000   -3.64849999999998
H        -2.03200000000002    0.49450000000001   -3.28930000000001
H        -1.85170000000003    1.65209999999995   -1.96220000000002
C         0.84229999999998    2.20669999999999   -2.22040000000000
O         0.75199999999998    1.78259999999998   -0.83690000000000
C         2.32929999999998    2.18619999999999   -2.59899999999999
H         2.74129999999998    1.18499999999999   -2.45750000000001
H         2.48870000000000    2.51300000000000   -3.63180000000000
H         2.87200000000000    2.86270000000000   -1.93199999999999
C         0.28439999999999    3.62290000000000   -2.33660000000000
H        -0.72650000000001    3.69040000000000   -1.92909999999998
H         0.92129999999998    4.31479999999997   -1.77609999999998
H         0.26429999999996    3.94809999999995   -3.38320000000000
B         1.56300000000000    0.60960000000000    1.84840000000000
O         2.92780000000001    0.55230000000001    2.15019999999999
C         3.36329999999999    1.88660000000002    2.50260000000000
C         4.53140000000000    1.78590000000003    3.47739999999998
H         4.27910000000003    1.16090000000004    4.33690000000000
H         5.39390000000001    1.33790000000003    2.97339999999998
H         4.82390000000001    2.77870000000002    3.83819999999999
C         3.79699999999999    2.56850000000000    1.19669999999999
H         4.20019999999999    3.57090000000000    1.37680000000000
H         4.56740000000001    1.95560000000001    0.72110000000001
H         2.95239999999997    2.63260000000000    0.50539999999999
C         2.05039999999998    2.50090000000002    3.09320000000002
O         1.03749999999998    1.81620000000000    2.31910000000000
C         1.89100000000002    4.00449999999999    2.88650000000000
H         1.87289999999996    4.25440000000000    1.82410000000003
H         0.94939999999999    4.34260000000000    3.33170000000000
H         2.71079999999995    4.55150000000003    3.36630000000000
C         1.82469999999995    2.13199999999997    4.56519999999998
H         1.92609999999999    1.05330000000000    4.71320000000000
H         2.52610000000001    2.65279999999999    5.22540000000001
H         0.80630000000003    2.41580000000002    4.84900000000001
B         2.27819999999999   -1.33090000000000    0.17410000000000
O         2.89459999999999   -2.57740000000001    0.38449999999998
C         4.26930000000001   -2.48199999999997   -0.07209999999999
C         5.10900000000001   -2.05380000000002    1.14009999999994
H         4.76350000000001   -1.08739999999999    1.51750000000002
H         4.98050000000001   -2.79469999999998    1.93590000000001
H         6.17420000000000   -1.99290000000000    0.89299999999995
C         4.71949999999996   -3.84659999999998   -0.58470000000000
H         4.75280000000002   -4.56129999999998    0.24420000000001
H         5.72329999999999   -3.78369999999999   -1.02010000000001
H         4.03499999999997   -4.23599999999998   -1.34169999999998
C         4.16440000000000   -1.36219999999996   -1.16300000000000
O         3.08519999999999   -0.55029999999999   -0.65399999999999
C         5.40720000000001   -0.48870000000000   -1.31549999999998
H         6.27320000000000   -1.09010000000004   -1.61530000000000
H         5.23299999999995    0.26930000000002   -2.08590000000001
H         5.64269999999999    0.02650000000006   -0.38239999999999
C         3.71799999999997   -1.89829999999997   -2.53109999999998
H         2.82530000000006   -2.52160000000001   -2.42740000000000
H         3.46089999999994   -1.05250000000002   -3.17550000000000
H         4.50569999999997   -2.48290000000003   -3.01790000000000
H        -3.38499999999994   -4.00130000000003   -2.59309999999999
H        -5.21399999999997    1.52079999999998    1.29960000000001
C         0.23590000000001   -1.68139999999998    2.96030000000003
C        -0.86353044878077   -1.77302597406888    3.80977410946735
C         1.52578171146847   -1.95183135340050    3.63448976502924
C        -0.77766569997003   -2.11147465545511    5.16125718906216
H        -1.85001834416805   -1.55528094918569    3.41983412736573
N         2.92404392125301   -2.06756403292507    3.19397578529479
C         1.52059841555121   -2.61844452776857    4.88926486358733
C         0.39029066768801   -2.61551675836102    5.70320130269220
H        -1.65864514201206   -2.05101765855412    5.78888303477559
O         4.02090159032515   -1.13223764745272    3.55583724879067
C         3.43755568476232   -3.13973410681664    3.93750534557844
C         2.75151841725999   -3.35707130921501    5.07704617372513
H         0.44687781236263   -3.02192505186378    6.70472498685387
Si        5.72946563959246   -1.13445552966136    3.55693126135525
H         4.40225874691057   -3.53602377756537    3.68003052612113
C         3.31526429258092   -4.17994386686128    6.18230647017559
C         6.52374650702286   -0.34506511027556    5.10055329215629
C         6.79240048103392   -2.73059061381723    3.53794215415737
C         6.78980565633282   -0.14296113947228    2.27955204806269
H         3.93481149815227   -3.54336212161123    6.82066235975181
H         3.97662069260599   -4.93608936263029    5.75474996515907
H         2.56281855405755   -4.66587866290905    6.79972431909671
H         6.22052197332170   -0.76851736049129    6.05150934943594
H         6.40520459833862    0.73399123904323    5.14608693110974
H         7.59156889565139   -0.53261182686328    4.98732356785667
H         7.81603369830527   -2.44767316205145    3.28996579780710
H         6.53404119480146   -3.50053914293129    2.81220846515729
H         6.84289308385043   -3.21961099273961    4.50919340789840
H         6.23938878933324    0.37358783939220    1.49489484610179
H         7.49687458252002   -0.78127095948100    1.74823486736587
H         7.40869569398274    0.61405105611412    2.76392158036802
