116
 energy: -163.638649028660 gnorm: 0.000481150276 xtb: 6.4.1 (1a32961)
N        -0.96745647108147   -2.16648792649707   -0.34087001706397
C        -2.25654869667639   -1.79364355401118   -0.41752914837238
C        -3.13531512281642   -2.41635602783436   -1.31284879207542
C        -2.67697766722296   -3.42762251033516   -2.13002064106777
C        -1.34156111353887   -3.80555035851595   -2.03486801736804
C        -0.53620866032113   -3.14545715159475   -1.12715785106077
H         0.50606658432233   -3.40151770619810   -1.01118318093073
H        -0.94066983371085   -4.59544614625883   -2.64900042909065
H        -4.16713663447228   -2.11133273342506   -1.37449716578090
C        -2.67379003497107   -0.71966898164384    0.48056023216005
N        -1.71642941854231   -0.19494256567538    1.26542461942811
C        -2.04443704096304    0.75956664661652    2.12679895009211
C        -3.32372193749170    1.26422103544270    2.25080354362184
C        -4.32232771899561    0.74875931305017    1.43067714791474
C        -3.99261524835880   -0.25268569531174    0.54208108585712
H        -4.75581893929099   -0.67032251365566   -0.09453363293707
H        -3.53850457319233    2.03628659504774    2.97180879192430
H        -1.23475370944014    1.12180897443984    2.74119568899223
Ir        0.42149999999979   -0.81649999999998    0.91330000000017
H         0.87259999999995   -2.23029999999995    1.54050000000027
B         0.06387821112377    0.57691144284970   -0.58690102653204
O        -0.05895780106223    0.24868286369540   -1.92509831046778
C        -0.76115047721400    1.27238088087703   -2.63900027156825
C        -0.04994059881628    1.54295553822461   -3.96461322528224
H         0.99554232063308    1.78378718422478   -3.80429369353635
H        -0.53774183969221    2.35845301431668   -4.49228434097234
H        -0.10030475300445    0.64751241351162   -4.57964167716518
C        -2.16714236047470    0.73355142000634   -2.94020476527888
H        -2.74481496637067    1.44967327011992   -3.51723798756613
H        -2.07201104210447   -0.18824193136937   -3.51066504904076
H        -2.69198388664440    0.50225989108150   -2.01632066045643
C        -0.76547248240967    2.47348927895854   -1.62922367724895
O        -0.42872819226030    1.85258253341180   -0.38676462674788
C         0.31880371992941    3.51605005968860   -1.92966579000085
H         1.29745930425566    3.04299875090151   -1.92166027703897
H         0.14372436562425    4.00282289078379   -2.88450524494090
H         0.30292686374695    4.27037945543137   -1.14574916902831
C        -2.11046211230000    3.18874436876952   -1.48011016933714
H        -2.87782237333809    2.51428992657150   -1.11093162505533
H        -2.00220387672124    3.99495317814539   -0.75805839445378
H        -2.42320380131910    3.60940646770716   -2.43198134521591
B         1.37701883448273    0.86155645280179    1.70210960231538
O         2.34712059233751    1.66900332977344    1.17970277381186
C         2.63302347904345    2.75553240735408    2.06885488870607
C         3.97145644165024    2.45098412118254    2.75147462381073
H         3.91015375464361    1.49754046666283    3.26459329276899
H         4.73483118480854    2.36482945112467    1.98307635107200
H         4.24816871496640    3.24064825263979    3.44387373692966
C         2.77223496361542    4.04595096480397    1.26135082396433
H         2.90951512697347    4.89460681824438    1.92657448294471
H         3.64008353498764    3.96237017429050    0.61284202100044
H         1.89980066750316    4.20553939947257    0.63792376187591
C         1.41372071489797    2.72760525275738    3.05630836767114
O         0.88805280558386    1.40886689301778    2.87394651180400
C         0.29987763845786    3.70635568010715    2.65843485800257
H        -0.02860935386336    3.48218739353986    1.64607532272617
H        -0.54587364157221    3.56558155827220    3.32833599092189
H         0.63321679912821    4.73733011995567    2.72847729993066
C         1.76790072574225    2.93368753110816    4.52784478049048
H         2.43523669947890    2.15366401602247    4.87689039931475
H         2.23153506501007    3.90613881794789    4.66963357909601
H         0.85863801214870    2.88589317731008    5.12187429032657
B         2.27820000000124   -1.33090000000092    0.17410000000148
O         2.43156176581166   -2.59862052373027   -0.38465135145400
C         3.50557706614748   -2.62248323506817   -1.33386128958078
C         4.64018345240132   -3.47436917330828   -0.75321677247341
H         4.99777781942132   -3.04265066273936    0.17544013910452
H         4.25540202067814   -4.46894843083532   -0.54100442597689
H         5.45677408180976   -3.55728489156904   -1.46404329156925
C         3.01131405594974   -3.27791727917952   -2.62519951450843
H         2.78727664717690   -4.32349247247004   -2.42812016600933
H         3.78047214354608   -3.22428806116051   -3.39046812546302
H         2.10843826819646   -2.79402731964586   -2.98253716172253
C         3.87298348650666   -1.10511502002938   -1.47264541947455
O         3.28772844985921   -0.52320670211262   -0.30088754481742
C         5.36953808652406   -0.80568253705239   -1.54848004060944
H         5.78018553199161   -1.23642565809848   -2.45810327288420
H         5.50758278943466    0.27157031653883   -1.57715518982594
H         5.90640360208315   -1.19389892165166   -0.69230151869880
C         3.18902872957664   -0.43119509019080   -2.67152751507866
H         2.11212118958838   -0.55713465354231   -2.60073411405346
H         3.39852460380328    0.63450470752957   -2.62145637571284
H         3.55946091854465   -0.82115255193085   -3.61487832099526
H        -3.34408688528867   -3.91351628971744   -2.82637026836107
H        -5.33555769493848    1.11774892365758    1.48976833181095
C         0.23589999999389   -1.68139999999558    2.96030000000257
C        -1.00293522515020   -2.26657816730070    3.18427455262219
C         0.93642169271188   -1.30754438538863    4.11045383285859
C        -1.59268834198324   -2.35657816809639    4.44949659823302
H        -1.56064810067843   -2.67372699429494    2.35200946759585
N         2.18607981082954   -0.80632787213690    4.29832985174651
C         0.33912151887480   -1.36517831639488    5.40620041316570
C        -0.94600854654860   -1.88455701808946    5.56520766561737
H        -2.57589943758146   -2.80002580533491    4.53780764838642
O         3.18797728311335   -0.73329089861137    3.37021792612940
C         2.40209681410365   -0.55349775692667    5.61841927415202
C         1.28970370663776   -0.86827213224260    6.34371010939943
H        -1.40287928024102   -1.92696425225813    6.54297109140206
Si        4.41231242851508   -1.87606638890056    3.28089972284787
H         3.34727253136757   -0.16457312452014    5.94247029972898
C         1.10928602056265   -0.74675331764289    7.81992293790401
C         5.26014612081511   -2.14758242404655    4.97846432404621
C         3.70024374100544   -3.55272494096480    2.73078590078089
C         5.58240460135306   -0.95260068402286    2.11434402607556
H         0.25263518296962   -0.11545848213933    8.05287403011471
H         1.99788728987681   -0.31293730540311    8.27098648861702
H         0.93331639985411   -1.72645758737653    8.26435657946388
H         4.57017245034171   -2.56083356204345    5.70942722139892
H         5.65882725317297   -1.22286314040444    5.38694389980622
H         6.08974061567511   -2.84179718052592    4.88941429773734
H         4.47123612140169   -4.30370213943681    2.59207124336450
H         3.15582573215630   -3.44460597135049    1.79825583671253
H         3.00094631249972   -3.93486779841688    3.47131251480120
H         4.99861871009151   -0.49659775789398    1.32144375700643
H         6.32346695781149   -1.61705354461974    1.68244570963919
H         6.11882475267372   -0.16211981631420    2.63019159283392
