105
 energy: -149.372556273150 gnorm: 0.022438925235 xtb: 6.4.0 (f63f532)
N        -0.96509999999997   -2.11529999999999   -0.24089999999998
C        -2.24700000000002   -1.69840000000013   -0.36220000000016
C        -3.14040000000006   -2.36819999999993   -1.21199999999988
C        -2.70219999999998   -3.47560000000006   -1.93049999999989
C        -1.37780000000028   -3.89880000000022   -1.78759999999995
C        -0.54289999999997   -3.18669999999993   -0.93510000000013
H         0.49809999999993   -3.45629999999999   -0.78939999999997
H        -0.99569999999997   -4.76030000000002   -2.32770000000004
H        -4.16499999999998   -2.02890000000000   -1.31830000000010
C        -2.62129999999999   -0.50949999999992    0.44100000000011
N        -1.62600000000002    0.07330000000001    1.16020000000002
C        -1.89679999999973    1.15239999999990    1.91690000000013
C        -3.17230000000008    1.70329999999999    1.99650000000011
C        -4.20509999999996    1.11739999999998    1.26269999999991
C        -3.92610000000003    0.00250000000009    0.47819999999987
H        -4.71959999999993   -0.46419999999997   -0.09520000000014
H        -3.34630000000003    2.57510000000002    2.62069999999997
H        -1.04450000000006    1.57420000000002    2.43690000000004
Ir        0.42150000000000   -0.81650000000000    0.91330000000001
H         0.87260000000000   -2.23030000000000    1.54050000000000
B         0.50670000000000    0.41559999999999   -0.81540000000000
O         0.19500000000000   -0.04699999999999   -2.09149999999996
C         0.00649999999999    1.10039999999998   -2.95430000000005
C         0.49019999999982    0.74740000000005   -4.35779999999992
H         1.51609999999998    0.37380000000001   -4.33699999999998
H         0.44729999999998    1.62239999999999   -5.01670000000002
H        -0.14739999999996   -0.03390000000001   -4.78430000000008
C        -1.50119999999995    1.39559999999999   -2.96669999999993
H        -1.75369999999998    2.21460000000002   -3.64850000000002
H        -2.03200000000000    0.49449999999992   -3.28930000000003
H        -1.85170000000004    1.65210000000001   -1.96219999999993
C         0.84230000000007    2.20669999999995   -2.22040000000001
O         0.75200000000001    1.78260000000002   -0.83689999999999
C         2.32929999999999    2.18619999999998   -2.59899999999993
H         2.74130000000001    1.18500000000005   -2.45749999999998
H         2.48870000000001    2.51300000000001   -3.63180000000000
H         2.87199999999997    2.86270000000001   -1.93200000000011
C         0.28439999999988    3.62290000000002   -2.33660000000002
H        -0.72649999999990    3.69040000000000   -1.92910000000000
H         0.92129999999993    4.31480000000004   -1.77610000000000
H         0.26429999999998    3.94810000000000   -3.38320000000003
B         1.56299999999998    0.60959999999999    1.84840000000000
O         2.92780000000006    0.55230000000001    2.15019999999999
C         3.36329999999967    1.88660000000006    2.50260000000009
C         4.53139999999967    1.78590000000005    3.47740000000029
H         4.27910000000000    1.16089999999999    4.33689999999975
H         5.39390000000011    1.33789999999999    2.97340000000000
H         4.82390000000000    2.77870000000001    3.83820000000004
C         3.79700000000001    2.56849999999999    1.19670000000007
H         4.20020000000001    3.57089999999998    1.37680000000001
H         4.56740000000002    1.95559999999994    0.72110000000007
H         2.95239999999995    2.63259999999999    0.50539999999999
C         2.05039999999983    2.50090000000003    3.09319999999998
O         1.03749999999990    1.81620000000009    2.31909999999993
C         1.89100000000004    4.00450000000004    2.88650000000009
H         1.87289999999999    4.25440000000002    1.82409999999995
H         0.94940000000005    4.34260000000001    3.33169999999996
H         2.71079999999997    4.55149999999994    3.36630000000001
C         1.82470000000018    2.13199999999998    4.56519999999992
H         1.92610000000003    1.05330000000000    4.71320000000001
H         2.52609999999994    2.65279999999997    5.22540000000001
H         0.80629999999991    2.41579999999994    4.84899999999998
B         2.27819999999996   -1.33090000000001    0.17410000000003
O         2.89460000000005   -2.57739999999997    0.38449999999997
C         4.26930000000014   -2.48200000000004   -0.07210000000009
C         5.10899999999996   -2.05379999999999    1.14009999999978
H         4.76349999999999   -1.08739999999997    1.51749999999998
H         4.98049999999997   -2.79469999999997    1.93589999999996
H         6.17419999999994   -1.99290000000000    0.89300000000001
C         4.71950000000009   -3.84660000000001   -0.58470000000002
H         4.75279999999997   -4.56130000000006    0.24419999999989
H         5.72330000000010   -3.78370000000000   -1.02009999999998
H         4.03499999999998   -4.23600000000002   -1.34169999999996
C         4.16440000000007   -1.36219999999992   -1.16299999999995
O         3.08519999999998   -0.55029999999990   -0.65400000000006
C         5.40719999999994   -0.48869999999995   -1.31550000000010
H         6.27320000000003   -1.09010000000004   -1.61529999999999
H         5.23300000000001    0.26929999999993   -2.08589999999996
H         5.64270000000000    0.02649999999996   -0.38240000000001
C         3.71799999999982   -1.89829999999996   -2.53109999999993
H         2.82530000000022   -2.52160000000008   -2.42739999999996
H         3.46089999999998   -1.05249999999995   -3.17550000000008
H         4.50570000000010   -2.48290000000012   -3.01789999999998
H        -3.38500000000014   -4.00130000000010   -2.59310000000000
H        -5.21400000000002    1.52079999999997    1.29960000000000
C         0.23589999999984   -1.68139999999987    2.96029999999990
C        -0.68051660448013   -2.64808037984777    3.41375389066097
C         1.35836570146403   -1.56730293740435    3.90184504689821
C        -0.66885082043425   -3.20716320808744    4.68724732373121
H        -1.35493803921351   -3.09371562715228    2.69396747116954
C         0.96484351702940   -1.62799168141066    5.26398497392744
C         2.87146328857224   -1.96943979032477    3.99055784486990
C         0.05716640219202   -2.57658311751142    5.68806606678281
H        -1.16409436569017   -4.14162067521443    4.91077600421899
Br        1.98244696353216   -0.80104925443153    6.66798094669470
C         3.20262845326348   -3.24872089999412    3.22140137515545
C         4.09611006436128   -1.04406650966566    3.98140129069769
H         2.96338309482885   -2.34318562740581    5.01740252549433
H         0.05710910328877   -2.88161129730559    6.72755014612232
H         2.58896653171866   -4.07932566756849    3.56280893082816
H         4.23900509272360   -3.49754571678831    3.46347613381655
H         3.08540239030388   -3.13137831644750    2.15204649220320
H         4.14944384003761   -0.43389790453288    3.09426518958656
H         5.02191948438568   -1.61864888082020    4.04366321907019
H         4.07663314749576   -0.42153663219301    4.87549778800129
