15
 energy: -28.112453092916 gnorm: 0.000244987565 xtb: 6.4.1 (1a32961)
C        -0.13002840227520    1.16343799960212   -0.00662015058550
O        -0.99568758671286    0.15195093398907   -0.00978762449724
C        -0.28552405678185   -0.99481979709855   -0.00546548535877
C         1.04591214291893   -0.73277400383167    0.00015607181564
C         1.15893569377168    0.68981788569413   -0.00073061672765
C         2.40304758206707    1.45983318175763    0.00490135288942
O         3.51483773526857    0.97725555159606    0.01076800000413
O         2.17463440529510    2.77895229132238    0.00452104263329
C         3.32275808524470    3.62617638721149    0.01090548264821
H        -0.51636535375497    2.16271948025468   -0.00955413923431
H        -0.83777847482358   -1.91274555924875   -0.00722625537734
H         1.85880316703513   -1.42754563639761    0.00447087430475
H         2.93911891550329    4.64255498766662    0.00937515803193
H         3.93393253426253    3.43894018421997   -0.87396822659922
H         3.92471361298145    3.43816611326242    0.90191451605267
