107
 energy: -165.308363903455 gnorm: 0.001638981444 xtb: 6.4.1 (1a32961)
N        -0.96510000000000   -2.11530000000002   -0.24090000000001
C        -2.24700000000000   -1.69840000000001   -0.36220000000000
C        -3.14040000000001   -2.36820000000000   -1.21199999999999
C        -2.70220000000002   -3.47559999999998   -1.93050000000000
C        -1.37779999999999   -3.89880000000005   -1.78759999999996
C        -0.54290000000000   -3.18670000000001   -0.93509999999996
H         0.49810000000000   -3.45630000000000   -0.78940000000000
H        -0.99570000000000   -4.76029999999999   -2.32769999999998
H        -4.16500000000000   -2.02889999999999   -1.31830000000000
C        -2.62129999999999   -0.50950000000000    0.44100000000001
N        -1.62600000000000    0.07330000000000    1.16020000000000
C        -1.89679999999999    1.15240000000001    1.91690000000000
C        -3.17230000000000    1.70330000000001    1.99650000000000
C        -4.20510000000000    1.11740000000000    1.26270000000001
C        -3.92610000000000    0.00250000000000    0.47820000000001
H        -4.71960000000000   -0.46420000000000   -0.09520000000000
H        -3.34630000000000    2.57510000000000    2.62070000000000
H        -1.04450000000000    1.57420000000000    2.43690000000000
Ir        0.42150000000000   -0.81650000000000    0.91330000000000
H         0.87260000000000   -2.23030000000000    1.54050000000000
B         0.50670000000000    0.41559999999999   -0.81540000000000
O         0.19500000000000   -0.04700000000002   -2.09149999999999
C         0.00650000000000    1.10040000000000   -2.95430000000000
C         0.49019999999999    0.74740000000003   -4.35779999999998
H         1.51609999999999    0.37380000000000   -4.33700000000000
H         0.44730000000000    1.62239999999997   -5.01670000000001
H        -0.14740000000000   -0.03390000000000   -4.78430000000000
C        -1.50120000000001    1.39560000000001   -2.96670000000000
H        -1.75370000000000    2.21459999999999   -3.64850000000000
H        -2.03200000000000    0.49449999999999   -3.28930000000001
H        -1.85170000000000    1.65210000000000   -1.96220000000000
C         0.84229999999999    2.20670000000001   -2.22039999999999
O         0.75200000000000    1.78259999999999   -0.83689999999999
C         2.32930000000000    2.18620000000004   -2.59900000000002
H         2.74130000000001    1.18500000000000   -2.45749999999999
H         2.48870000000000    2.51300000000000   -3.63180000000001
H         2.87200000000000    2.86270000000001   -1.93200000000000
C         0.28440000000001    3.62290000000001   -2.33660000000000
H        -0.72650000000000    3.69040000000000   -1.92910000000000
H         0.92130000000001    4.31480000000000   -1.77610000000000
H         0.26430000000000    3.94810000000000   -3.38319999999999
B         1.56300000000000    0.60960000000000    1.84840000000000
O         2.92780000000000    0.55230000000000    2.15020000000000
C         3.36330000000000    1.88660000000000    2.50259999999999
C         4.53140000000000    1.78590000000001    3.47739999999999
H         4.27910000000000    1.16090000000000    4.33689999999999
H         5.39390000000000    1.33790000000000    2.97340000000001
H         4.82390000000000    2.77870000000001    3.83820000000000
C         3.79700000000001    2.56850000000000    1.19670000000000
H         4.20020000000000    3.57090000000000    1.37680000000000
H         4.56740000000000    1.95560000000000    0.72110000000000
H         2.95240000000000    2.63260000000000    0.50540000000000
C         2.05040000000000    2.50090000000000    3.09320000000000
O         1.03750000000000    1.81620000000000    2.31910000000001
C         1.89100000000000    4.00450000000001    2.88649999999998
H         1.87290000000000    4.25440000000000    1.82410000000005
H         0.94940000000000    4.34260000000000    3.33170000000000
H         2.71080000000000    4.55149999999999    3.36629999999999
C         1.82470000000000    2.13200000000001    4.56520000000001
H         1.92610000000000    1.05329999999999    4.71320000000000
H         2.52610000000000    2.65280000000000    5.22540000000000
H         0.80630000000001    2.41580000000000    4.84900000000000
B         2.27820000000000   -1.33090000000000    0.17410000000000
O         2.89460000000001   -2.57740000000000    0.38450000000000
C         4.26930000000000   -2.48200000000000   -0.07209999999999
C         5.10900000000000   -2.05380000000001    1.14010000000000
H         4.76350000000000   -1.08740000000000    1.51750000000000
H         4.98050000000000   -2.79470000000000    1.93589999999999
H         6.17420000000000   -1.99290000000000    0.89300000000000
C         4.71950000000000   -3.84660000000000   -0.58470000000000
H         4.75280000000000   -4.56130000000000    0.24420000000000
H         5.72330000000000   -3.78370000000000   -1.02010000000000
H         4.03500000000000   -4.23600000000000   -1.34170000000000
C         4.16440000000001   -1.36220000000000   -1.16300000000001
O         3.08520000000000   -0.55030000000000   -0.65400000000000
C         5.40719999999999   -0.48870000000001   -1.31550000000000
H         6.27320000000000   -1.09010000000000   -1.61530000000000
H         5.23300000000000    0.26930000000001   -2.08590000000001
H         5.64270000000000    0.02650000000000   -0.38240000000001
C         3.71800000000000   -1.89830000000002   -2.53110000000001
H         2.82530000000000   -2.52159999999999   -2.42740000000000
H         3.46090000000000   -1.05249999999999   -3.17550000000000
H         4.50570000000001   -2.48289999999999   -3.01790000000000
H        -3.38499999999999   -4.00129999999999   -2.59310000000000
H        -5.21400000000000    1.52080000000001    1.29960000000000
C         0.23590000000000   -1.68140000000000    2.96029999999998
C        -0.95225940517649   -2.31172330584211    3.41138541503902
C         1.26147149749857   -1.63316655979862    3.89714339422219
N        -1.15973243288889   -2.68347458045851    4.66568957528275
C        -2.09751085872863   -2.74437483401385    2.54884157097790
C         1.11270122329835   -2.13180195920034    5.20532331130317
H         2.23577729054157   -1.27040120259678    3.59461591905915
C        -0.16531867826629   -2.63258650190540    5.56194240209430
H        -2.70755017839336   -3.44123271214406    3.12368842381641
H        -1.73314078518558   -3.23899105430371    1.65098663501742
H        -2.72635973526438   -1.90199094251250    2.26679005024537
C         2.16047270292188   -2.25508211542456    6.13822510508343
C        -0.37829553063994   -3.22633748818740    6.80983149161074
C         1.95812585791323   -2.87633710886670    7.35024491404495
H         3.14342396141009   -1.88506856298518    5.87694418707553
C         0.68512215537275   -3.36462138789035    7.68302564273314
H        -1.36134656417498   -3.61208579340612    7.04746644435077
H         2.77390414888058   -3.00338374252560    8.05055889318173
C         0.45523296428708   -4.12971073806954    8.95151994678991
F        -0.71928037127235   -3.82563043816140    9.55151564718318
F         0.40894526945559   -5.47021978654106    8.74562969107879
F         1.40736681502228   -3.94354665090662    9.89126586310585
