107
 energy: -152.608828249536 gnorm: 0.000737313746 xtb: 6.4.0 (f63f532)
N        -0.96509999999999   -2.11530000000000   -0.24090000000000
C        -2.24699999999999   -1.69840000000000   -0.36220000000002
C        -3.14039999999996   -2.36820000000000   -1.21199999999997
C        -2.70219999999997   -3.47560000000002   -1.93050000000003
C        -1.37780000000007   -3.89880000000002   -1.78759999999999
C        -0.54290000000002   -3.18670000000002   -0.93510000000001
H         0.49810000000000   -3.45630000000000   -0.78940000000000
H        -0.99570000000000   -4.76030000000001   -2.32769999999999
H        -4.16499999999999   -2.02890000000000   -1.31830000000000
C        -2.62130000000000   -0.50950000000002    0.44099999999998
N        -1.62599999999999    0.07329999999998    1.16019999999998
C        -1.89680000000001    1.15240000000002    1.91690000000001
C        -3.17229999999998    1.70330000000000    1.99650000000001
C        -4.20509999999999    1.11740000000003    1.26270000000002
C        -3.92610000000000    0.00250000000001    0.47819999999999
H        -4.71960000000000   -0.46420000000001   -0.09520000000000
H        -3.34630000000000    2.57509999999999    2.62069999999999
H        -1.04449999999999    1.57420000000000    2.43690000000000
Ir        0.42150000000000   -0.81650000000000    0.91330000000000
H         0.87260000000000   -2.23030000000000    1.54050000000000
B         0.50670000000000    0.41560000000000   -0.81539999999999
O         0.19500000000000   -0.04700000000001   -2.09150000000001
C         0.00649999999998    1.10040000000000   -2.95429999999999
C         0.49019999999992    0.74740000000000   -4.35780000000002
H         1.51609999999997    0.37379999999999   -4.33700000000000
H         0.44730000000000    1.62240000000000   -5.01670000000000
H        -0.14740000000002   -0.03390000000001   -4.78429999999999
C        -1.50120000000000    1.39560000000002   -2.96670000000001
H        -1.75370000000000    2.21459999999999   -3.64850000000000
H        -2.03199999999998    0.49450000000001   -3.28930000000001
H        -1.85170000000000    1.65210000000000   -1.96219999999999
C         0.84229999999999    2.20670000000000   -2.22039999999999
O         0.75200000000000    1.78260000000001   -0.83690000000001
C         2.32929999999999    2.18619999999999   -2.59899999999999
H         2.74130000000000    1.18499999999999   -2.45750000000000
H         2.48870000000000    2.51300000000000   -3.63180000000000
H         2.87199999999999    2.86270000000000   -1.93200000000000
C         0.28439999999994    3.62290000000002   -2.33660000000000
H        -0.72650000000002    3.69040000000000   -1.92910000000000
H         0.92129999999999    4.31480000000002   -1.77609999999999
H         0.26430000000001    3.94810000000000   -3.38320000000002
B         1.56300000000000    0.60960000000000    1.84840000000000
O         2.92780000000000    0.55230000000000    2.15019999999999
C         3.36330000000001    1.88660000000000    2.50260000000001
C         4.53139999999998    1.78589999999999    3.47740000000001
H         4.27910000000000    1.16090000000000    4.33690000000000
H         5.39390000000002    1.33790000000000    2.97340000000001
H         4.82390000000000    2.77870000000000    3.83820000000000
C         3.79700000000000    2.56850000000000    1.19669999999999
H         4.20020000000000    3.57090000000000    1.37680000000000
H         4.56740000000000    1.95560000000000    0.72110000000000
H         2.95240000000000    2.63260000000000    0.50540000000000
C         2.05039999999997    2.50090000000000    3.09320000000000
O         1.03750000000000    1.81620000000000    2.31910000000000
C         1.89100000000001    4.00450000000000    2.88650000000000
H         1.87290000000000    4.25440000000000    1.82410000000000
H         0.94940000000000    4.34260000000000    3.33170000000000
H         2.71079999999998    4.55150000000000    3.36630000000000
C         1.82469999999998    2.13200000000002    4.56519999999999
H         1.92610000000000    1.05329999999999    4.71320000000000
H         2.52610000000000    2.65280000000000    5.22540000000000
H         0.80630000000000    2.41580000000000    4.84899999999999
B         2.27819999999997   -1.33089999999999    0.17410000000002
O         2.89459999999999   -2.57740000000000    0.38450000000000
C         4.26929999999999   -2.48199999999998   -0.07210000000005
C         5.10900000000000   -2.05379999999998    1.14009999999999
H         4.76350000000000   -1.08739999999999    1.51750000000000
H         4.98050000000000   -2.79470000000003    1.93590000000001
H         6.17419999999999   -1.99290000000000    0.89300000000000
C         4.71949999999999   -3.84660000000001   -0.58469999999998
H         4.75280000000000   -4.56129999999999    0.24419999999998
H         5.72330000000003   -3.78370000000000   -1.02009999999999
H         4.03499999999998   -4.23600000000001   -1.34170000000001
C         4.16440000000000   -1.36220000000001   -1.16299999999998
O         3.08520000000002   -0.55030000000000   -0.65399999999999
C         5.40719999999999   -0.48870000000004   -1.31550000000003
H         6.27319999999999   -1.09010000000000   -1.61530000000000
H         5.23300000000000    0.26930000000000   -2.08590000000002
H         5.64269999999999    0.02650000000000   -0.38240000000003
C         3.71799999999996   -1.89830000000001   -2.53110000000002
H         2.82530000000005   -2.52160000000001   -2.42740000000000
H         3.46089999999999   -1.05250000000001   -3.17549999999999
H         4.50569999999999   -2.48290000000001   -3.01789999999999
H        -3.38500000000002   -4.00130000000002   -2.59310000000002
H        -5.21399999999999    1.52080000000001    1.29960000000001
C         0.23590000000002   -1.68140000000001    2.96030000000000
C        -0.98469268647053   -2.22071653025405    3.36316590601044
C         1.25583726269498   -1.63744542367868    3.91303746549342
C        -1.18091914146243   -2.68909262761033    4.65570020689697
H        -1.80143001239645   -2.31726015230189    2.65736899562599
C         1.06748878745770   -2.10156225581993    5.20513448491184
H         2.23065289566887   -1.27089837098906    3.61998419959878
C        -0.14769485223208   -2.66587971647532    5.58791696819073
H        -2.13666923814844   -3.12239698699840    4.92665292685527
H         1.88726511342995   -2.07053577987929    5.91287718198051
C        -0.30335494906823   -3.28790863457613    6.95437939796616
N        -0.50215571472275   -2.30412851340881    7.99912981297569
H         0.59887688295532   -3.85904826099973    7.19702982234606
H        -1.16122491665968   -3.96753588527004    6.95670908033836
C        -1.70550253441228   -1.80316852912275    8.39114822454897
C         0.47791456879009   -1.70159265045295    8.72655201704409
C        -1.49526223765591   -0.88085338915101    9.38343651517508
H        -2.62116669766627   -2.14486319340602    7.94161899040101
C        -0.10304235710502   -0.81569430525656    9.59691468063802
H         1.51425332942829   -1.95177652717944    8.58288849072819
H        -2.25197072072858   -0.31985271624506    9.90429597458394
H         0.40821537230208   -0.19345463329377   10.31108006607704
