107
 energy: -152.622404198788 gnorm: 0.000251731680 xtb: 6.4.0 (f63f532)
N        -0.85147765122653   -2.01057903404185   -0.44358538232642
C        -2.10190165425436   -1.54886350238702   -0.64012586741431
C        -2.92426447466176   -2.10105763986851   -1.63136468020008
C        -2.45286798015981   -3.12355182008603   -2.42404832497482
C        -1.15673484356074   -3.58855452651578   -2.21076058621081
C        -0.40766980207484   -3.00093455996375   -1.21390477768686
H         0.60001514256108   -3.33330982440842   -1.00755066341663
H        -0.74667152118245   -4.38730544657438   -2.80716641093496
H        -3.92428059507784   -1.73011551973946   -1.78456447663230
C        -2.52598767442708   -0.45387122908628    0.22148421228964
N        -1.61732790774975   -0.00112805864413    1.11371906169547
C        -1.96497086113924    0.99204785387408    1.92953349446714
C        -3.20502563912683    1.59613451431158    1.91031377552588
C        -4.14755825061042    1.15172488758385    0.98571919477191
C        -3.80001883394858    0.12241910573886    0.13854300760569
H        -4.51645699668744   -0.23497048841838   -0.58236921068376
H        -3.43458019472195    2.39078567399865    2.60158421929678
H        -1.19731884092415    1.31145131689665    2.61737534308520
Ir        0.42150000000000   -0.81650000000030    0.91329999999992
H         0.87259999999987   -2.23029999999991    1.54050000000014
B         0.41907281776961    0.64831523537493   -0.57897710441048
O        -0.19338161664674    0.39382733627569   -1.79408879295075
C        -0.27684424162701    1.59759036053741   -2.56390794589173
C         0.01684289716182    1.29415978830819   -4.03111500576644
H         0.94619359753201    0.74309302964880   -4.12997165023708
H         0.07726424353108    2.21910550259259   -4.59896142143900
H        -0.78573700418582    0.68403439828439   -4.43859739782278
C        -1.71701134390482    2.11409981726161   -2.43294600763190
H        -1.86927429575697    3.00874426392138   -3.02937420270952
H        -2.39710216044143    1.33751440280436   -2.77775147596246
H        -1.94620430971082    2.32364748598919   -1.38989154450404
C         0.76677472675040    2.52613394885753   -1.86040642171301
O         0.85977124696252    1.95190264604241   -0.55046055928370
C         2.16276824791857    2.42096652431390   -2.48706568233181
H         2.47694575207173    1.37998301950997   -2.48174671726561
H         2.17715473056244    2.82107080962838   -3.49674433435389
H         2.86359489185892    2.98234803211385   -1.87348360422692
C         0.36066534885028    3.99536656832068   -1.76035797600651
H        -0.53347978756377    4.11715531942181   -1.15677184970974
H         1.16516600919478    4.55577494186540   -1.29006205463582
H         0.18609079279067    4.40143268058877   -2.75356238948483
B         1.52198249445726    0.65174403156231    1.90466881381130
O         2.88873142300830    0.78538748592334    1.98009938058826
C         3.22829828720280    2.06109674024429    2.54244540102932
C         4.42730451204318    1.91182553345168    3.47759909903555
H         4.25088659067844    1.14010701545393    4.21939482407415
H         5.30043867973739    1.62859564716495    2.89527806761462
H         4.63059551405483    2.85553765264635    3.97650641044407
C         3.60373877018673    2.96921446378165    1.36557431936710
H         3.85916145074901    3.97078140249610    1.69858824717315
H         4.46026287276275    2.53733272414619    0.85281550855838
H         2.77281374803138    2.99733707908428    0.66558707264113
C         1.89561398853723    2.49682847476366    3.24252051445614
O         0.91532995912676    1.67544774653289    2.59597621953138
C         1.52192378455653    3.96642628414310    3.05536276410073
H         1.35183792056675    4.18607725508607    2.00672773968229
H         0.60332836308799    4.17138359304160    3.59972511937570
H         2.30880625888172    4.60737326637395    3.44351734057525
C         1.85699490797658    2.15376510545305    4.73701712821052
H         2.06404232968289    1.09750792544629    4.88399558518557
H         2.56764459048238    2.75408129017738    5.29650130994813
H         0.85618750683145    2.35226386889334    5.11249318198636
B         2.27820000000130   -1.33089999999959    0.17410000000060
O         3.11139590731495   -2.29913141591271    0.69419692158760
C         4.40962430170779   -2.21348905268653    0.09333999497203
C         5.30655812537025   -1.48805747712122    1.10266171690041
H         4.85095459824320   -0.53496899126067    1.35650646848874
H         5.35700457933046   -2.08634437580152    2.00893704953798
H         6.31073393487760   -1.34535980697519    0.71571590215375
C         4.95443181267266   -3.62081510097696   -0.14964863877746
H         5.08671208787167   -4.11473436768428    0.80935143870841
H         5.91494417769398   -3.56751113036978   -0.65440415820776
H         4.26649635501997   -4.21536646103124   -0.74145570976922
C         4.13831575841869   -1.37174536315029   -1.20349700483708
O         2.87017831964750   -0.75781987125074   -0.92762416458623
C         5.16946041249677   -0.27956451949788   -1.48394309438884
H         6.16090858187090   -0.71177514073369   -1.58704657028842
H         4.90941464742096    0.22723430984896   -2.40994374908020
H         5.16724181012184    0.45391459035915   -0.68512881492003
C         3.96408204610234   -2.23230925769946   -2.46206027426144
H         3.20521288936810   -2.99202600912850   -2.29685390744984
H         3.62687278707993   -1.59379851148714   -3.27514471664770
H         4.90082787704808   -2.70194454072824   -2.74647606082579
H        -3.07487420940655   -3.55351289690828   -3.19436502238704
H        -5.12811768043905    1.60027609719402    0.93294149456341
C         0.23589999999343   -1.68139999999817    2.96030000000561
C        -1.03473750236885   -2.13399008739099    3.30957531255261
C         1.18082675363375   -1.56314236892847    3.97862440963673
C        -1.36507067970329   -2.40389469314844    4.62751944503855
H        -1.78679485109230   -2.29949386918256    2.55038225404212
C         0.85424976196556   -1.83917750520002    5.29439022230759
H         2.18862195771140   -1.27115987334297    3.72508571233701
C        -0.42258184350111   -2.27201870659004    5.63627842667140
H        -2.36190479361146   -2.75110099417966    4.86566877023094
H         1.60303815054524   -1.73916596594570    6.06805444317281
C        -0.75515121431765   -2.65683444128049    7.06098448862232
N        -0.51000773980891   -1.59747465547180    8.00688847012192
H        -0.14286811814596   -3.51600272235931    7.35399530758548
H        -1.80848434865062   -2.94760799000592    7.12214200066032
C        -1.32377722002797   -0.53194621126945    8.21818978991015
C         0.57089758959499   -1.48737226684824    8.81985612519609
C        -0.76285715641887    0.26485435241447    9.18004088729782
H        -2.23968252633211   -0.41802804663249    7.67171307025933
C         0.44682389896612   -0.34469762735982    9.56422353811542
H         1.34397911498386   -2.23149077911747    8.82193925319964
H        -1.17061728075133    1.17827532914211    9.56881934268466
H         1.13810492396279    0.01415645853571   10.30250270862089
