129
 energy: -190.372736274499 gnorm: 0.000511831508 xtb: 6.4.1 (1a32961)
N        -0.96510000000565   -2.11529999999612   -0.24090000000108
C        -2.24700000000458   -1.69839999999969   -0.36220000000164
C        -3.14040000000317   -2.36820000000040   -1.21199999999843
C        -2.70220000000052   -3.47559999999983   -1.93049999999985
C        -1.37780000000016   -3.89879999999987   -1.78759999999951
C        -0.54290000000027   -3.18670000000189   -0.93509999999920
H         0.49809999999983   -3.45630000000004   -0.78940000000002
H        -0.99569999999960   -4.76030000000042   -2.32770000000000
H        -4.16499999999938   -2.02890000000024   -1.31829999999991
C        -2.62129999999993   -0.50950000000008    0.44099999999987
N        -1.62599999999927    0.07330000000029    1.16020000000008
C        -1.89680000000088    1.15239999999991    1.91689999999984
C        -3.17230000000031    1.70329999999944    1.99649999999996
C        -4.20510000000042    1.11739999999883    1.26270000000041
C        -3.92610000000080    0.00250000000108    0.47819999999989
H        -4.71959999999968   -0.46419999999998   -0.09519999999997
H        -3.34629999999996    2.57510000000010    2.62069999999998
H        -1.04450000000029    1.57419999999976    2.43689999999991
Ir        0.42149999999992   -0.81650000000001    0.91329999999987
H         0.87259999999996   -2.23029999999996    1.54050000000001
B         0.50669999999948    0.41559999999613   -0.81539999999978
O         0.19499999999985   -0.04700000000013   -2.09150000000027
C         0.00650000000014    1.10039999999970   -2.95429999999966
C         0.49020000000010    0.74739999999946   -4.35779999999997
H         1.51610000000012    0.37379999999988   -4.33699999999992
H         0.44730000000007    1.62240000000025   -5.01669999999956
H        -0.14739999999954   -0.03390000000014   -4.78430000000002
C        -1.50120000000001    1.39560000000020   -2.96669999999920
H        -1.75369999999974    2.21460000000067   -3.64849999999997
H        -2.03199999999980    0.49449999999931   -3.28930000000002
H        -1.85169999999995    1.65209999999996   -1.96219999999958
C         0.84229999999967    2.20670000000011   -2.22039999999995
O         0.75200000000038    1.78260000000266   -0.83689999999993
C         2.32929999999922    2.18619999999996   -2.59899999999959
H         2.74129999999983    1.18499999999953   -2.45749999999997
H         2.48870000000014    2.51300000000021   -3.63180000000108
H         2.87200000000007    2.86270000000022   -1.93199999999995
C         0.28440000000027    3.62289999999996   -2.33659999999871
H        -0.72650000000014    3.69039999999994   -1.92909999999989
H         0.92130000000001    4.31479999999982   -1.77610000000015
H         0.26430000000007    3.94810000000008   -3.38320000000018
B         1.56300000000003    0.60959999999957    1.84839999999992
O         2.92780000000019    0.55229999999982    2.15020000000012
C         3.36330000000187    1.88660000000016    2.50260000000011
C         4.53140000000043    1.78590000000013    3.47740000000061
H         4.27909999999997    1.16090000000004    4.33689999999998
H         5.39389999999982    1.33789999999998    2.97340000000012
H         4.82389999999984    2.77869999999967    3.83820000000000
C         3.79699999999990    2.56850000000000    1.19669999999987
H         4.20019999999992    3.57090000000002    1.37679999999995
H         4.56740000000001    1.95560000000002    0.72110000000017
H         2.95239999999997    2.63260000000006    0.50540000000006
C         2.05040000000017    2.50089999999950    3.09319999999987
O         1.03749999999988    1.81620000000018    2.31910000000019
C         1.89100000000001    4.00449999999996    2.88650000000027
H         1.87290000000003    4.25440000000003    1.82410000000001
H         0.94939999999985    4.34260000000008    3.33169999999995
H         2.71079999999977    4.55150000000010    3.36629999999998
C         1.82469999999985    2.13200000000012    4.56519999999975
H         1.92609999999979    1.05330000000019    4.71319999999999
H         2.52609999999993    2.65279999999991    5.22540000000000
H         0.80629999999991    2.41580000000018    4.84899999999995
B         2.27819999999998   -1.33090000000000    0.17410000000001
O         2.89460000000045   -2.57739999999999    0.38450000000007
C         4.26930000000004   -2.48200000000001   -0.07210000000482
C         5.10899999999948   -2.05380000000032    1.14010000000130
H         4.76349999999992   -1.08739999999974    1.51750000000033
H         4.98049999999994   -2.79469999999989    1.93590000000016
H         6.17420000000006   -1.99289999999992    0.89300000000027
C         4.71950000000038   -3.84659999999967   -0.58469999999836
H         4.75280000000015   -4.56129999999967    0.24420000000003
H         5.72329999999995   -3.78370000000016   -1.02009999999969
H         4.03499999999976   -4.23600000000023   -1.34169999999993
C         4.16439999999797   -1.36219999999996   -1.16300000000243
O         3.08520000000613   -0.55030000000014   -0.65399999999570
C         5.40720000000045   -0.48869999999997   -1.31550000000012
H         6.27319999999957   -1.09009999999972   -1.61529999999985
H         5.23300000000007    0.26930000000046   -2.08589999999977
H         5.64270000000004    0.02650000000027   -0.38239999999957
C         3.71800000000021   -1.89830000000014   -2.53110000000152
H         2.82530000000051   -2.52160000000031   -2.42740000000020
H         3.46089999999979   -1.05249999999987   -3.17549999999968
H         4.50570000000032   -2.48290000000071   -3.01789999999975
H        -3.38499999999970   -4.00130000000044   -2.59309999999935
H        -5.21399999999990    1.52080000000004    1.29959999999972
C         0.23590000000003   -1.68139999999988    2.96030000000035
C        -1.02547812966089   -2.07181697087720    3.38801041757211
C         1.26941350801739   -1.56312675604976    3.90293542215934
C        -1.26360121947807   -2.25389597720247    4.76021707941351
H        -1.83253802697673   -2.23127923025625    2.68390359365150
C         1.06324500484533   -1.71752969758666    5.26262648567521
H         2.26597819798762   -1.34114770133498    3.54549706620294
C        -0.22159131235093   -2.05095479142031    5.68470459372808
C        -2.41576180627948   -2.63552753416698    5.52117910307839
H         1.87271845720833   -1.60394944148275    5.97047511997787
N        -0.71422788869032   -2.28487818381695    6.94074218989942
C        -2.02978122751178   -2.63867241764129    6.83686718446258
C        -3.75193091616931   -3.03784938086828    4.98069316493427
H        -0.19206774480141   -2.20893770106394    7.79841610997827
H        -2.61315812639465   -2.86731382172222    7.71182717566831
C        -3.78715866296572   -4.54744749765210    4.68750880229091
H        -3.96715192023343   -2.50276166904976    4.05193491481742
H        -4.53762873311261   -2.81044299861675    5.70658026468837
N        -2.76784921500368   -4.88667476083152    3.71064853107432
C        -5.15361270359975   -4.92659934969975    4.12140469722737
H        -3.63058765739940   -5.11990111713782    5.61086901444404
C        -2.90168344163440   -5.95747621874539    2.90265082069223
H        -1.95070487547959   -4.29626413258452    3.63863490276566
O        -5.63022340861218   -4.46306242871942    3.10966320134755
O        -5.80618822654050   -5.74252416402615    4.95761775667098
O        -3.86437555187427   -6.70591039481916    2.94229328283908
O        -1.83672997648163   -6.06481227577630    2.09065699858113
C        -7.10172481353593   -6.18396267871767    4.55144747829495
C        -1.72899285729759   -7.14139910879311    1.11864048662947
H        -7.49634588468634   -6.75302619410031    5.39231557200819
H        -7.01106859520806   -6.81428204582072    3.66342201916181
H        -7.73759292343699   -5.32599131845080    4.32221782167258
C        -2.86310224559775   -7.03932624304017    0.09521288958693
C        -0.37336242125037   -6.88784156352684    0.44841701617222
C        -1.73451744652543   -8.50308725291048    1.82039513704364
H        -2.85560232794767   -6.05099138219751   -0.36648361537610
H        -3.82571448085100   -7.19067405526946    0.58240218959397
H        -2.73278554545703   -7.79716602181006   -0.67581343832307
H        -0.36473268279023   -5.89337233030065    0.00370698651314
H        -0.19858150351183   -7.63507905914635   -0.32502274968932
H         0.42423830351410   -6.94090631235311    1.18921092200646
H        -2.69387959651986   -8.67556333650547    2.30502153201671
H        -0.94763531262896   -8.53733773518166    2.57476126824107
H        -1.56022056681824   -9.28959245451500    1.08784667656472
