129
 energy: -190.386065761304 gnorm: 0.000429014266 xtb: 6.4.1 (1a32961)
N        -0.89234976963080   -2.08974430655395   -0.34481636178355
C        -2.16974640640650   -1.68687717868614   -0.47724731133226
C        -3.05973207339790   -2.38019206539156   -1.30938698089030
C        -2.61838788577626   -3.46639003305012   -2.03127632308167
C        -1.28491015334464   -3.85264175364804   -1.90699743456291
C        -0.47675918555017   -3.13883370309788   -1.04786893284337
H         0.55982063189892   -3.41061000846667   -0.90446686172231
H        -0.89546641540480   -4.69236966803304   -2.45967441861087
H        -4.09107361458106   -2.07695414241249   -1.38405836716886
C        -2.55223671932482   -0.50125968338144    0.27656169497204
N        -1.62155824595822    0.01231587267185    1.11021733833247
C        -1.93229870713469    1.09462581089483    1.82096580661733
C        -3.15032668563159    1.73669264887684    1.74008263828378
C        -4.11127873437555    1.23394067677156    0.86550367702982
C        -3.80491843956326    0.10854110932212    0.13251429590054
H        -4.53259646573186   -0.29255095129223   -0.55350668676717
H        -3.34876914588492    2.60765224261379    2.34358918207059
H        -1.15081830801035    1.45418826555032    2.47262886628098
Ir        0.42149999999966   -0.81650000000003    0.91330000000015
H         0.87259999999981   -2.23030000000017    1.54049999999969
B         0.36461060808751    0.60157091733447   -0.61517977938393
O        -0.27897075997003    0.27778999772815   -1.79674077390923
C        -0.40236186366725    1.43794411635248   -2.62402219724581
C        -0.14903123092246    1.06141418819153   -4.08187445413457
H         0.78596248849793    0.51995694184951   -4.18068734349829
H        -0.12260557014752    1.95515246390899   -4.70010551991433
H        -0.95330443800419    0.41744564622651   -4.43001259968220
C        -1.84445538676362    1.94546318755232   -2.47675920595281
H        -2.02764934081908    2.80083076807244   -3.12030355002762
H        -2.52594219957396    1.14233880582304   -2.75123473589682
H        -2.04340877684926    2.21507035041691   -1.44130460425013
C         0.64891189174341    2.41351770865950   -2.00036198382171
O         0.78103308070810    1.91420420206623   -0.66345428540945
C         2.02942125400852    2.28395776095829   -2.65627296909197
H         2.35152896548949    1.24662498698591   -2.60373391378568
H         2.01516422724692    2.62946570310924   -3.68600817350895
H         2.74068065833566    2.88194403981966   -2.09127796503663
C         0.23114496971537    3.88243898697472   -1.97316284142094
H        -0.64934044097793    4.03059690959926   -1.35557354157770
H         1.04139921845907    4.47571441908789   -1.55603339538980
H         0.02763308532649    4.22923952418180   -2.98317933252037
B         1.53724229056520    0.67481715395582    1.84518019576352
O         2.90157047578090    0.85433100636241    1.82448849929809
C         3.23935824836699    2.13737615958913    2.36876197064825
C         4.51226064619707    2.02757097283531    3.20681828228136
H         4.42473360282843    1.24089234123126    3.94854470489196
H         5.34799464571782    1.78633990770164    2.55503781446287
H         4.71574343341907    2.97406363172881    3.70036970384010
C         3.49008516154705    3.06586505858320    1.17427547327053
H         3.73891261742249    4.07320898121204    1.49482568288559
H         4.31650994055220    2.66509425239682    0.59141509821377
H         2.60659649149386    3.07130611639356    0.54105732053840
C         1.95072916056627    2.51908157800434    3.17370049966350
O         0.95060367255609    1.67876127451264    2.58505820746377
C         1.52213654340142    3.97991443155226    3.04611512738230
H         1.26753085614438    4.21445804236020    2.01789637397167
H         0.64183221775345    4.14744232752659    3.66187230682619
H         2.31787184276474    4.63705543827519    3.38661728020421
C         2.03624944983685    2.14279396582766    4.65848134246045
H         2.28860345965462    1.09083635791365    4.75670967160293
H         2.76835184421675    2.75455039862085    5.17654890108124
H         1.05997492459204    2.29613788995053    5.11207121919512
B         2.27820000000079   -1.33089999999843    0.17409999999900
O         3.16046008289641   -2.22109046921457    0.74956834277406
C         4.41808546668600   -2.18986537039992    0.06313828841601
C         5.36372312417528   -1.34236320884013    0.92107975326471
H         4.90551313844121   -0.37282302563961    1.09445355269493
H         5.48610287841639   -1.83169968125815    1.88396233876794
H         6.33707285370144   -1.23198887765673    0.45330650853081
C         4.97276104100984   -3.60973255890801   -0.05165914136314
H         5.17579843585983   -3.98726507110477    0.94697042543766
H         5.89744824318740   -3.60427330546867   -0.62200800280555
H         4.25921785646607   -4.27671275397129   -0.52363976650493
C         4.05129798508286   -1.50715211884868   -1.30139918883685
O         2.79895002118407   -0.86743276897428   -1.01288440484303
C         5.05168433181649   -0.45720952348588   -1.78202413130896
H         6.03632302411070   -0.90039517809453   -1.90318054417023
H         4.72328540910403   -0.06524297931853   -2.74146091085331
H         5.10198725433079    0.36703396989824   -1.07893977295102
C         3.79708723817052   -2.51301731906254   -2.43257585058098
H         3.06340104887398   -3.25142501397316   -2.12123691728870
H         3.39092631919531   -1.97861290642625   -3.28819856793481
H         4.71648123104400   -3.00902811114165   -2.72845784574095
H        -3.29304604477434   -4.00737376629188   -2.67771906458868
H        -5.07363213893523    1.71230990862699    0.76230959235062
C         0.23589999999896   -1.68139999999901    2.96029999999874
C        -1.04007662452888   -2.03190964055871    3.35636617100610
C         1.24830195716281   -1.52761300564095    3.92647909636839
C        -1.32718527468370   -2.14132792066551    4.72355790735204
H        -1.82449943577269   -2.21122629496767    2.63293145303548
C         0.99597556070404   -1.62472207561737    5.27721870307649
H         2.25123644190490   -1.32941192425855    3.58118821905369
C        -0.30459850478825   -1.91828526397069    5.67449271063776
C        -2.51233706128521   -2.45024486576520    5.46504210318736
H         1.78160998282998   -1.48998896386616    6.00644430608288
N        -0.84566995299135   -2.08200679122307    6.91756694514567
C        -2.16668200798839   -2.40130536724331    6.78691717132785
C        -3.84770750378121   -2.79828594773215    4.89659009878843
H        -0.35385686236826   -1.97778124280129    7.78818316298171
H        -2.78215063691568   -2.56618437677747    7.65015022319177
C        -3.96393045015963   -4.30771154205742    4.60978752018629
H        -4.00973461341832   -2.26395140652465    3.95852128143773
H        -4.63886908339300   -2.52363618000077    5.59580177574338
N        -2.90955415426850   -4.72539000152664    3.71331884918499
C        -5.31237276437527   -4.58551380809323    3.94661696960352
H        -3.91660758028509   -4.88114674817767    5.54522012752775
C        -3.06529475627464   -5.76707947006753    2.87968632531130
H        -2.05989996204236   -4.17781702913582    3.67960088235960
O        -5.66672274865419   -4.08893043571654    2.90361275353880
O        -6.08055620761427   -5.33746682376622    4.72044435790467
O        -4.06936880863203   -6.45873069196586    2.85917355659023
O        -1.97568878533810   -5.92222100299645    2.12105232861871
C        -7.37456752325602   -5.68069009445239    4.22101921253184
C        -1.87160954117559   -6.99704901841104    1.14505350769036
H        -7.91270228089279   -6.11018386401492    5.06141385073059
H        -7.26979924004697   -6.40723473945790    3.41411267957153
H        -7.87846786653629   -4.79044924917765    3.84079633517231
C        -2.95300347775792   -6.84269924948852    0.07643513377810
C        -0.48305353517512   -6.79707140501568    0.53643712045174
C        -1.96520325733582   -8.35604702887153    1.83819704096538
H        -2.88673846520862   -5.85487267128096   -0.37504392841684
H        -3.93943666717497   -6.95873390175768    0.51805239738440
H        -2.81850106276314   -7.59761482045304   -0.69234427809355
H        -0.42045588385831   -5.81167866279815    0.08301009693141
H        -0.30039359000507   -7.55520909487168   -0.21827859226993
H         0.27569227789706   -6.86899244057207    1.31033349355682
H        -2.94824812828091   -8.48559099287302    2.28354875178024
H        -1.21286747015277   -8.42754201019766    2.62049642762100
H        -1.79936207968410   -9.14621853650832    1.11207806849788
