108
 energy: -152.664000699149 gnorm: 0.001222010117 xtb: 6.4.0 (f63f532)
N        -0.96509999999995   -2.11530000000026   -0.24089999999978
C        -2.24699999999962   -1.69839999999984   -0.36219999999990
C        -3.14039999999959   -2.36819999999940   -1.21200000000069
C        -2.70219999999986   -3.47560000000091   -1.93050000000026
C        -1.37779999999966   -3.89880000000019   -1.78760000000012
C        -0.54289999999995   -3.18670000000013   -0.93510000000118
H         0.49809999999997   -3.45630000000002   -0.78940000000002
H        -0.99569999999997   -4.76029999999966   -2.32770000000019
H        -4.16499999999989   -2.02889999999999   -1.31829999999994
C        -2.62129999999995   -0.50949999999993    0.44100000000009
N        -1.62599999999995    0.07329999999998    1.16020000000001
C        -1.89680000000028    1.15239999999992    1.91690000000002
C        -3.17230000000003    1.70329999999994    1.99649999999989
C        -4.20509999999991    1.11740000000025    1.26269999999983
C        -3.92609999999989    0.00249999999981    0.47820000000023
H        -4.71960000000021   -0.46420000000012   -0.09520000000004
H        -3.34629999999998    2.57510000000015    2.62069999999998
H        -1.04450000000002    1.57419999999997    2.43689999999998
Ir        0.42150000000003   -0.81649999999994    0.91329999999997
H         0.87259999999999   -2.23030000000000    1.54049999999999
B         0.50669999999994    0.41560000000008   -0.81539999999992
O         0.19499999999997   -0.04699999999977   -2.09150000000011
C         0.00649999999948    1.10039999999964   -2.95429999999995
C         0.49019999999964    0.74739999999948   -4.35780000000008
H         1.51610000000010    0.37379999999992   -4.33699999999997
H         0.44729999999994    1.62240000000019   -5.01669999999970
H        -0.14739999999981   -0.03390000000015   -4.78430000000011
C        -1.50120000000013    1.39560000000026   -2.96670000000004
H        -1.75369999999998    2.21459999999985   -3.64849999999989
H        -2.03199999999996    0.49450000000004   -3.28929999999990
H        -1.85170000000000    1.65209999999998   -1.96219999999994
C         0.84229999999980    2.20669999999995   -2.22039999999980
O         0.75200000000000    1.78259999999991   -0.83689999999989
C         2.32929999999965    2.18620000000035   -2.59900000000056
H         2.74130000000007    1.18500000000027   -2.45749999999999
H         2.48869999999992    2.51300000000002   -3.63180000000040
H         2.87200000000004    2.86269999999985   -1.93199999999998
C         0.28439999999989    3.62290000000048   -2.33659999999982
H        -0.72650000000020    3.69039999999999   -1.92910000000008
H         0.92130000000005    4.31479999999992   -1.77610000000004
H         0.26430000000000    3.94809999999989   -3.38320000000004
B         1.56299999999993    0.60959999999961    1.84840000000006
O         2.92780000000001    0.55229999999979    2.15020000000014
C         3.36330000000021    1.88659999999977    2.50260000000027
C         4.53139999999984    1.78590000000049    3.47740000000030
H         4.27910000000004    1.16090000000002    4.33689999999976
H         5.39389999999968    1.33790000000022    2.97340000000050
H         4.82390000000005    2.77869999999950    3.83819999999986
C         3.79700000000003    2.56850000000030    1.19670000000015
H         4.20020000000001    3.57089999999998    1.37679999999994
H         4.56739999999997    1.95559999999999    0.72109999999971
H         2.95240000000002    2.63259999999999    0.50539999999992
C         2.05040000000004    2.50089999999975    3.09320000000010
O         1.03749999999988    1.81619999999964    2.31910000000010
C         1.89100000000018    4.00449999999985    2.88650000000063
H         1.87289999999996    4.25440000000015    1.82409999999998
H         0.94940000000006    4.34260000000007    3.33169999999991
H         2.71080000000007    4.55149999999990    3.36629999999989
C         1.82470000000005    2.13199999999994    4.56519999999985
H         1.92610000000005    1.05330000000051    4.71319999999998
H         2.52609999999997    2.65280000000007    5.22539999999994
H         0.80630000000021    2.41580000000007    4.84899999999990
B         2.27820000000000   -1.33090000000004    0.17409999999998
O         2.89459999999993   -2.57740000000007    0.38450000000001
C         4.26929999999991   -2.48200000000007   -0.07210000000016
C         5.10899999999990   -2.05380000000008    1.14009999999989
H         4.76349999999998   -1.08740000000009    1.51749999999994
H         4.98050000000004   -2.79470000000004    1.93589999999979
H         6.17419999999995   -1.99289999999999    0.89299999999994
C         4.71950000000004   -3.84660000000009   -0.58470000000036
H         4.75280000000003   -4.56130000000002    0.24420000000010
H         5.72329999999994   -3.78370000000000   -1.02010000000001
H         4.03499999999999   -4.23600000000002   -1.34169999999989
C         4.16439999999995   -1.36220000000007   -1.16299999999973
O         3.08520000000009   -0.55029999999990   -0.65399999999997
C         5.40719999999996   -0.48870000000014   -1.31549999999968
H         6.27319999999994   -1.09009999999993   -1.61530000000003
H         5.23299999999994    0.26929999999987   -2.08589999999995
H         5.64269999999995    0.02650000000005   -0.38239999999989
C         3.71800000000006   -1.89830000000017   -2.53110000000007
H         2.82529999999995   -2.52159999999997   -2.42739999999998
H         3.46089999999996   -1.05249999999995   -3.17550000000000
H         4.50570000000006   -2.48289999999988   -3.01790000000002
H        -3.38500000000005   -4.00130000000027   -2.59310000000034
H        -5.21400000000004    1.52080000000004    1.29960000000000
C         0.23590000000003   -1.68139999999978    2.96030000000010
C        -1.07774263599000   -1.88783246658850    3.39278805128348
C         1.18430804827633   -1.64600526749375    3.98369911337694
C        -1.45869058842988   -1.90168130748946    4.73781715877288
H        -1.85279217753209   -2.06932877031712    2.65642384670490
Br        3.04168400713473   -1.87221993421298    3.69469116061582
C         0.83994999444104   -1.56742750475306    5.32425615651422
C        -0.48697797884837   -1.65712254167419    5.70326524770073
C        -2.88537133609962   -2.21333609809584    5.12020547374242
H         1.61678626401895   -1.48062648543192    6.07307770170344
H        -0.72600651679823   -1.59535372586543    6.75506098160588
C        -3.06702789555863   -2.71181391256808    6.56666198558727
H        -3.25478726787249   -2.97690643828467    4.42760950647575
H        -3.50219429372232   -1.32082763467320    4.96804895509944
C        -3.33026463051066   -1.55323561139835    7.53008560203220
C        -4.21257203046011   -3.72173783038090    6.65811661795651
H        -2.15176040024886   -3.23126642372150    6.87163258083834
H        -4.31673106869437   -1.12626636013143    7.34389710394842
H        -2.59314465029962   -0.75939014876135    7.41318193774206
H        -3.29872999005498   -1.90157192584335    8.56358434037649
H        -5.14950207267324   -3.27482263607883    6.32399837123449
H        -4.33754696185296   -4.05191655736416    7.69009700406357
H        -4.00368805236018   -4.59785171341450    6.04323653776358
