110
 energy: -159.038086446285 gnorm: 0.005849533386 xtb: 6.4.1 (1a32961)
N        -0.96510000000003   -2.11530000000000   -0.24090000000002
C        -2.24699999999999   -1.69840000000001   -0.36220000000007
C        -3.14040000000004   -2.36820000000000   -1.21200000000000
C        -2.70220000000006   -3.47559999999999   -1.93050000000000
C        -1.37780000000000   -3.89879999999999   -1.78760000000000
C        -0.54290000000002   -3.18670000000001   -0.93510000000004
H         0.49809999999999   -3.45630000000000   -0.78940000000000
H        -0.99570000000000   -4.76030000000001   -2.32770000000000
H        -4.16500000000000   -2.02890000000000   -1.31829999999999
C        -2.62130000000000   -0.50949999999998    0.44100000000003
N        -1.62600000000002    0.07329999999999    1.16020000000003
C        -1.89680000000004    1.15240000000003    1.91690000000003
C        -3.17230000000000    1.70329999999997    1.99650000000000
C        -4.20509999999999    1.11740000000000    1.26269999999997
C        -3.92610000000001    0.00250000000003    0.47820000000000
H        -4.71960000000001   -0.46419999999999   -0.09520000000002
H        -3.34630000000000    2.57510000000001    2.62069999999998
H        -1.04450000000001    1.57420000000001    2.43690000000001
Ir        0.42150000000000   -0.81650000000000    0.91330000000000
H         0.87260000000000   -2.23030000000000    1.54050000000000
B         0.50670000000000    0.41560000000000   -0.81540000000001
O         0.19499999999999   -0.04700000000000   -2.09149999999995
C         0.00650000000001    1.10040000000000   -2.95429999999998
C         0.49020000000008    0.74739999999999   -4.35780000000001
H         1.51610000000000    0.37379999999999   -4.33700000000000
H         0.44729999999999    1.62240000000000   -5.01670000000000
H        -0.14739999999998   -0.03389999999998   -4.78429999999999
C        -1.50120000000005    1.39560000000000   -2.96670000000000
H        -1.75370000000000    2.21459999999999   -3.64849999999999
H        -2.03199999999998    0.49450000000002   -3.28929999999999
H        -1.85170000000000    1.65209999999999   -1.96220000000001
C         0.84229999999999    2.20670000000000   -2.22039999999999
O         0.75200000000000    1.78259999999999   -0.83690000000000
C         2.32930000000004    2.18620000000001   -2.59899999999999
H         2.74130000000001    1.18499999999998   -2.45750000000000
H         2.48870000000000    2.51300000000000   -3.63180000000001
H         2.87200000000001    2.86270000000001   -1.93200000000001
C         0.28440000000003    3.62290000000000   -2.33659999999999
H        -0.72650000000000    3.69040000000000   -1.92909999999999
H         0.92130000000000    4.31479999999999   -1.77610000000003
H         0.26430000000000    3.94810000000000   -3.38320000000000
B         1.56300000000001    0.60960000000001    1.84839999999999
O         2.92780000000001    0.55230000000001    2.15020000000000
C         3.36330000000003    1.88660000000000    2.50260000000001
C         4.53140000000001    1.78589999999998    3.47740000000004
H         4.27910000000000    1.16089999999999    4.33690000000003
H         5.39389999999999    1.33790000000000    2.97340000000000
H         4.82390000000001    2.77870000000000    3.83820000000000
C         3.79699999999999    2.56849999999999    1.19670000000000
H         4.20020000000000    3.57090000000000    1.37680000000000
H         4.56740000000000    1.95560000000000    0.72110000000000
H         2.95240000000000    2.63260000000000    0.50540000000000
C         2.05040000000003    2.50090000000000    3.09320000000001
O         1.03750000000001    1.81620000000000    2.31909999999999
C         1.89099999999998    4.00450000000000    2.88650000000000
H         1.87290000000000    4.25440000000000    1.82410000000000
H         0.94939999999997    4.34260000000000    3.33170000000000
H         2.71080000000001    4.55149999999999    3.36630000000000
C         1.82469999999991    2.13200000000000    4.56520000000002
H         1.92610000000001    1.05330000000000    4.71320000000000
H         2.52610000000001    2.65280000000000    5.22539999999999
H         0.80630000000005    2.41579999999999    4.84900000000000
B         2.27820000000001   -1.33090000000000    0.17410000000000
O         2.89460000000003   -2.57740000000000    0.38450000000000
C         4.26930000000003   -2.48200000000000   -0.07209999999999
C         5.10900000000000   -2.05380000000001    1.14009999999996
H         4.76350000000000   -1.08740000000000    1.51750000000000
H         4.98050000000000   -2.79470000000002    1.93589999999998
H         6.17420000000000   -1.99290000000000    0.89299999999999
C         4.71950000000000   -3.84660000000001   -0.58470000000001
H         4.75280000000000   -4.56130000000002    0.24419999999998
H         5.72330000000001   -3.78370000000000   -1.02009999999998
H         4.03499999999998   -4.23600000000000   -1.34169999999999
C         4.16440000000004   -1.36220000000001   -1.16300000000006
O         3.08519999999998   -0.55029999999999   -0.65400000000000
C         5.40719999999997   -0.48870000000002   -1.31549999999996
H         6.27320000000001   -1.09010000000000   -1.61530000000000
H         5.23300000000000    0.26929999999998   -2.08590000000000
H         5.64269999999999    0.02650000000001   -0.38239999999999
C         3.71800000000004   -1.89830000000000   -2.53110000000003
H         2.82529999999995   -2.52160000000002   -2.42740000000000
H         3.46090000000000   -1.05250000000001   -3.17549999999999
H         4.50569999999997   -2.48290000000000   -3.01790000000001
H        -3.38500000000000   -4.00130000000001   -2.59310000000001
H        -5.21400000000001    1.52079999999999    1.29960000000000
C         0.23590000000002   -1.68140000000000    2.96029999999999
C        -0.95862816902161   -2.17662025541498    3.46885352487491
C         1.34725355671519   -1.88461821116970    3.82553343555128
C        -1.07186615467873   -2.74124054446780    4.74562084715775
H        -1.85361444554502   -2.15648161253783    2.85749416086900
N         2.68484257037860   -1.67084889346503    3.61154017263572
C         1.25672492979013   -2.44593182308718    5.11960845732733
C         0.01446140399066   -2.89117713976715    5.58594809438218
H        -2.03690051584633   -3.11583979537051    5.06537707256149
C         3.43495478672464   -2.01834837007885    4.71428069761378
H         3.03008536905589   -1.27436325438858    2.75355390969343
C         2.56731247805270   -2.51608012707035    5.66299449984318
H        -0.06938685954662   -3.37629646865023    6.54963235276043
C         4.87844183730323   -1.79078952746376    4.81943087605034
H         2.83259103626992   -2.87871598987432    6.64083148016507
C         5.50213343051657   -0.95518586325333    3.89248286360282
C         5.69437107484156   -2.30830346852717    5.83203324294377
C         6.84752427715554   -0.63237781814627    3.94421187763312
H         4.88123129947526   -0.52116040920394    3.13228980727884
C         7.04362142994128   -1.98139044872246    5.89819300111675
H         5.28215835929263   -2.97045386638305    6.58148623516934
C         7.63435112061391   -1.14338451855016    4.96251696743585
H         7.27703992610757    0.02800428860271    3.20009826531493
H         7.65382201685316   -2.38362039516257    6.69722919396248
H         8.68397574419060   -0.88390201035588    5.02639535200676
