110
 energy: -159.077488312173 gnorm: 0.000191804390 xtb: 6.4.1 (1a32961)
N        -0.82538708456625   -2.03603977535162   -0.45087062950679
C        -2.10136572089911   -1.63216542515100   -0.59684470652313
C        -2.93293707714948   -2.21465365047584   -1.56207695305232
C        -2.44735285602779   -3.21247196774497   -2.37812469215208
C        -1.12432127886045   -3.61616430752778   -2.21824826018850
C        -0.36534980644412   -2.99681571098738   -1.24777297875947
H         0.66816876336925   -3.27077698041078   -1.09707322079777
H        -0.69990470927741   -4.39276413347523   -2.83360508905885
H        -3.95290163898553   -1.88764401966258   -1.67808738317089
C        -2.55302433043918   -0.56818745541120    0.29177539849742
N        -1.64658965662044   -0.07821210271798    1.16142251272262
C        -2.02525686194833    0.87660669397850    2.00559585640231
C        -3.29645722521576    1.41358487606165    2.03344404124776
C        -4.23849270544259    0.93282525063440    1.12897971493633
C        -3.86009192638374   -0.06534126058317    0.25773401633542
H        -4.57919127524613   -0.45376836006383   -0.44436961155440
H        -3.54719528301216    2.18429815663955    2.74434508146782
H        -1.25973482289324    1.22440670672138    2.68129501725575
Ir        0.42150000000012   -0.81650000000016    0.91329999999999
H         0.87260000000001   -2.23029999999985    1.54050000000006
B         0.40216646669502    0.65131075274298   -0.58729897969799
O        -0.57904031049891    0.59612144423323   -1.56501900686173
C        -0.62683899241241    1.82894821068391   -2.28673039862373
C        -0.88036812441189    1.55320738747432   -3.76755159575180
H        -0.16718508990793    0.83469781269118   -4.15856334852861
H        -0.81554043305369    2.47732032047832   -4.33612697338370
H        -1.87846579319213    1.13774021435989   -3.88573230836934
C        -1.80470741458981    2.63244765229978   -1.71605701329628
H        -1.92957692339928    3.57584012788383   -2.23918472434683
H        -2.71315015494815    2.04292639476203   -1.82618372194969
H        -1.65160372051995    2.81545910139750   -0.65430565359199
C         0.76152463427586    2.47289674510162   -1.95982394846771
O         1.14334853143060    1.79863129943188   -0.75372378985751
C         1.82862156693930    2.14908894164603   -3.01237758663696
H         1.87784046328496    1.07324722701198   -3.16126266164936
H         1.61799684040463    2.64852919869833   -3.95370654982245
H         2.79453435436497    2.48306926557162   -2.64034761638028
C         0.73255827430111    3.98171573175275   -1.72029647221473
H         0.12887909074794    4.22801778874240   -0.85212000845362
H         1.74602041889898    4.33258840835479   -1.54036983687021
H         0.33565231870236    4.49194659756744   -2.59417734025279
B         1.44448827115096    0.72557252522447    1.88811340261204
O         2.80110193273906    0.89006432318366    2.04705157793548
C         3.08596193512648    2.20344803870938    2.54632274564551
C         4.21852528528353    2.14326693648391    3.56881224259697
H         4.00390126209527    1.42861721581492    4.35596505653474
H         5.13199930615985    1.83122071650675    3.07019325619434
H         4.37708668494310    3.12633569184202    4.00409282898778
C         3.53298047167981    3.04082637983014    1.34139056861104
H         3.74079019016141    4.06851522147135    1.62371429225304
H         4.43759217661640    2.59820337785373    0.93076408485386
H         2.76264715607208    3.00092644512825    0.57573239283150
C         1.70454709300659    2.65661906788498    3.12687200316003
O         0.78073442855898    1.79451850732436    2.45179584103394
C         1.33537514682912    4.11170862964108    2.84486967690632
H         1.25539611245503    4.28505338152138    1.77671467488417
H         0.37257667293548    4.33079384576454    3.30019428780329
H         2.08280385682631    4.77706678393025    3.26834531019940
C         1.56495538653218    2.37691476397049    4.62923967019893
H         1.77494115670099    1.33030367094415    4.83509875853979
H         2.23047031317708    3.00858137672258    5.20948460435913
H         0.53876631893872    2.57776555398991    4.92912594659168
B         2.27819999999918   -1.33089999999973    0.17410000000074
O         3.39980933864329   -1.66994669605321    0.90735224279292
C         4.41896258969247   -2.19509819378105    0.04390907228589
C         5.78910383685855   -1.68205643938983    0.47814015272232
H         5.77080463087543   -0.60503426854603    0.60661673686337
H         6.05620032971652   -2.13846208284973    1.42750918166169
H         6.53953956690420   -1.94966294148463   -0.26083967619594
C         4.38483880272451   -3.72246338614635    0.18978940171259
H         4.53615389906420   -3.97382221566167    1.23664519809792
H         5.16587051462230   -4.18815299281906   -0.40338095076565
H         3.41368761436237   -4.10732192213689   -0.11061865659029
C         3.95099332184912   -1.70560961069194   -1.36652160380081
O         2.54638850213123   -1.48180497127738   -1.17091310788830
C         4.56588765484195   -0.35415004436327   -1.74810870745288
H         5.63659908939470   -0.43625803714111   -1.90791025259001
H         4.09812464410861   -0.00571077592584   -2.66531777356330
H         4.35212323375326    0.36959941105302   -0.96544724510345
C         4.16471952815749   -2.70303627672314   -2.50289808695238
H         3.61193473490589   -3.62076319073557   -2.33188981233048
H         3.81126052530644   -2.26288665624518   -3.43183685740561
H         5.22236600684376   -2.93146856233083   -2.60165917762143
H        -3.07947803862449   -3.66737248813394   -3.12564641097083
H        -5.24315204125958    1.32790034264776    1.11010151993527
C         0.23590000000024   -1.68139999999845    2.96030000000134
C        -1.03329163418376   -1.99508076703246    3.41372316960988
C         1.23434567798782   -1.63175707876125    3.93671955728408
C        -1.32454916373234   -2.13079149693075    4.77947132314788
H        -1.84562960819132   -2.14418762159467    2.71593756420657
N         2.57676007357938   -1.48709546951852    3.79259114901390
C         0.96211847959171   -1.78415932550933    5.32326604586243
C        -0.35180933980480   -2.01655883991307    5.74292456735539
H        -2.34555523645141   -2.34221535606208    5.06926133060909
C         3.18143780962637   -1.53401276093046    5.02135165241107
H         3.01667994961405   -1.34687334798704    2.89322576670437
C         2.20988627500177   -1.70923125863812    5.98606840468478
H        -0.58487169774512   -2.12968188366211    6.79205033430718
C         4.62155489439675   -1.44121402298834    5.18288772191334
H         2.35734269151726   -1.77819013595921    7.04600401218854
C         5.44043073009942   -1.06195876173332    4.11585488996525
C         5.22394809491604   -1.73994025973986    6.40803130432773
C         6.81164139091337   -0.98971696868972    4.27366027942726
H         4.99425540527366   -0.81201002843158    3.16658037632837
C         6.59491790605978   -1.66391655877199    6.55993323625552
H         4.61155490661814   -2.04272780651847    7.24313996518743
C         7.39686430255722   -1.29022382548292    5.49328097405548
H         7.43205709352353   -0.69479024462157    3.43942559666212
H         7.04208192170686   -1.90179147127143    7.51463796722200
H         8.46896678591842   -1.23413952049652    5.61291201865921
