9
 energy: -14.651040966481 gnorm: 0.000372881803 xtb: 6.4.1 (1a32961)
C        -0.20476340842032    1.08704262889341   -0.00507097744702
O        -1.06954807464278    0.05615895300628   -0.01082884418555
C        -0.33658547453298   -1.07228411662313   -0.00392804259054
C         0.99114336044009   -0.77995876398077    0.00514973450638
C         1.07757717480080    0.63544486621678    0.00512508442728
H        -0.62089568369634    2.07462794892565   -0.00950255070193
H        -0.86969388479830   -2.00193739699583   -0.00723287026607
H         1.80468829522768   -1.47564066542874    0.01236336840652
H         1.96961769562214    1.22714654598634    0.01210509785093
