107
 energy: -150.802824636633 gnorm: 0.011855126777 xtb: 6.4.1 (1a32961)
N        -0.96510000000000   -2.11529999999995   -0.24089999999995
C        -2.24700000000021   -1.69840000000004   -0.36220000000011
C        -3.14039999999996   -2.36820000000003   -1.21200000000022
C        -2.70219999999969   -3.47560000000004   -1.93049999999999
C        -1.37779999999989   -3.89879999999998   -1.78759999999997
C        -0.54289999999991   -3.18670000000010   -0.93510000000005
H         0.49810000000008   -3.45630000000000   -0.78939999999999
H        -0.99570000000002   -4.76030000000002   -2.32770000000000
H        -4.16499999999994   -2.02889999999998   -1.31830000000002
C        -2.62130000000006   -0.50949999999999    0.44099999999998
N        -1.62599999999994    0.07329999999996    1.16019999999987
C        -1.89680000000012    1.15240000000008    1.91689999999989
C        -3.17229999999980    1.70330000000013    1.99649999999988
C        -4.20510000000012    1.11740000000016    1.26270000000004
C        -3.92610000000005    0.00249999999979    0.47820000000004
H        -4.71959999999989   -0.46420000000001   -0.09519999999997
H        -3.34630000000000    2.57509999999989    2.62070000000003
H        -1.04449999999993    1.57419999999998    2.43689999999999
Ir        0.42150000000000   -0.81650000000001    0.91330000000000
H         0.87260000000000   -2.23030000000000    1.54049999999999
B         0.50670000000000    0.41560000000001   -0.81540000000003
O         0.19499999999994   -0.04699999999999   -2.09149999999995
C         0.00650000000002    1.10039999999997   -2.95429999999998
C         0.49020000000011    0.74740000000002   -4.35780000000005
H         1.51610000000019    0.37380000000004   -4.33700000000000
H         0.44729999999998    1.62240000000000   -5.01670000000001
H        -0.14740000000008   -0.03389999999994   -4.78430000000000
C        -1.50119999999981    1.39559999999988   -2.96670000000007
H        -1.75370000000000    2.21459999999994   -3.64850000000003
H        -2.03200000000009    0.49449999999999   -3.28930000000001
H        -1.85170000000006    1.65209999999999   -1.96220000000004
C         0.84229999999996    2.20670000000001   -2.22040000000000
O         0.75200000000001    1.78260000000000   -0.83690000000000
C         2.32929999999994    2.18619999999992   -2.59900000000003
H         2.74129999999995    1.18499999999999   -2.45750000000000
H         2.48869999999994    2.51300000000001   -3.63179999999995
H         2.87200000000008    2.86270000000000   -1.93200000000002
C         0.28439999999980    3.62289999999997   -2.33660000000002
H        -0.72649999999996    3.69040000000002   -1.92910000000003
H         0.92129999999999    4.31480000000001   -1.77610000000001
H         0.26429999999998    3.94809999999998   -3.38320000000000
B         1.56299999999992    0.60960000000002    1.84840000000002
O         2.92780000000013    0.55230000000001    2.15019999999998
C         3.36329999999991    1.88659999999997    2.50260000000000
C         4.53140000000005    1.78589999999999    3.47739999999985
H         4.27909999999997    1.16089999999997    4.33689999999997
H         5.39389999999999    1.33789999999998    2.97339999999990
H         4.82389999999998    2.77870000000001    3.83819999999998
C         3.79699999999999    2.56850000000003    1.19669999999999
H         4.20020000000001    3.57090000000002    1.37680000000000
H         4.56740000000001    1.95560000000001    0.72110000000001
H         2.95240000000006    2.63260000000000    0.50540000000004
C         2.05040000000023    2.50090000000000    3.09319999999996
O         1.03749999999996    1.81620000000004    2.31909999999999
C         1.89099999999997    4.00450000000000    2.88649999999994
H         1.87289999999999    4.25440000000000    1.82409999999998
H         0.94940000000001    4.34260000000000    3.33169999999999
H         2.71080000000002    4.55149999999998    3.36629999999998
C         1.82470000000017    2.13200000000001    4.56520000000001
H         1.92609999999996    1.05330000000000    4.71320000000001
H         2.52610000000009    2.65279999999997    5.22540000000002
H         0.80629999999985    2.41579999999998    4.84899999999999
B         2.27820000000009   -1.33090000000000    0.17410000000000
O         2.89459999999990   -2.57739999999998    0.38449999999999
C         4.26930000000001   -2.48200000000006   -0.07210000000032
C         5.10899999999990   -2.05380000000008    1.14009999999993
H         4.76350000000001   -1.08739999999997    1.51750000000005
H         4.98050000000000   -2.79470000000003    1.93589999999997
H         6.17420000000003   -1.99290000000000    0.89300000000000
C         4.71949999999991   -3.84660000000001   -0.58470000000013
H         4.75279999999998   -4.56129999999999    0.24420000000004
H         5.72329999999997   -3.78370000000000   -1.02010000000000
H         4.03499999999996   -4.23599999999998   -1.34169999999997
C         4.16440000000009   -1.36220000000007   -1.16299999999993
O         3.08520000000006   -0.55030000000001   -0.65400000000007
C         5.40720000000009   -0.48870000000004   -1.31550000000005
H         6.27320000000003   -1.09009999999999   -1.61530000000003
H         5.23300000000000    0.26929999999997   -2.08589999999994
H         5.64270000000003    0.02650000000009   -0.38239999999988
C         3.71800000000024   -1.89830000000009   -2.53110000000007
H         2.82530000000012   -2.52159999999998   -2.42739999999999
H         3.46089999999999   -1.05250000000003   -3.17549999999994
H         4.50569999999997   -2.48290000000004   -3.01789999999996
H        -3.38500000000001   -4.00130000000002   -2.59309999999988
H        -5.21400000000002    1.52080000000001    1.29960000000001
C         0.23589999999998   -1.68139999999997    2.96029999999991
C        -0.65861267893069   -2.66662476128119    3.36373309167435
N         1.22336984414934   -1.72901633462320    3.96310500375558
C        -0.27582707370578   -3.23043853773341    4.59486917388631
H        -1.52108165084275   -2.97191626286557    2.79579897545259
C         0.89861153151015   -2.61749845642913    4.94087169012308
O         2.45179759076156   -1.07559345105609    4.13996863204862
H        -0.75427483268627   -4.01924742191861    5.14908836935743
H         1.54367342940489   -2.73716339116383    5.79255988178082
Si        3.62794000988878   -0.95761435874879    5.34305816692337
C         3.31309123356606    0.42949401014964    6.61667109238117
C         4.15511858299426   -2.30193616785517    6.58468847878371
C         5.34981737374936   -0.75874870417033    4.54900840632355
H         3.84622263876339    0.21654279357779    7.54200337724611
H         2.26329905226514    0.54738847331895    6.88400917223898
H         3.66377908873038    1.41264376652124    6.30660409633239
H         3.42555879314590   -2.55160753664605    7.35143966097845
H         5.01782077476445   -1.88074748873389    7.10360062832820
H         4.49634280708429   -3.22186216858984    6.11439318276336
H         5.31672268858664   -0.61372536396563    3.47484655063469
H         5.98066574304164   -1.62423135960322    4.73757957262328
H         5.87426974376438    0.09353501126679    4.98297912094284
