119
 energy: -172.759753059831 gnorm: 0.000583495353 xtb: 6.4.1 (1a32961)
N        -0.87290423329907   -2.09498347768296   -0.34724805239529
C        -2.03961431022142   -1.55199996342517   -0.73025784217897
C        -2.87589553867056   -2.20913152649191   -1.64187192557077
C        -2.50734975218980   -3.43532453102113   -2.14970668636703
C        -1.29849152393858   -3.98979075102565   -1.73742350763511
C        -0.52625481796584   -3.27861867004473   -0.84301662891687
H         0.42068006653455   -3.67126391185015   -0.49948504622374
H        -0.97087696983952   -4.94978229030495   -2.10248119882196
H        -3.81192135377907   -1.76880834047889   -1.94428052416974
C        -2.36564729787802   -0.25664141693941   -0.15230896189285
N        -1.56717756637155    0.17512897700845    0.84836750552329
C        -1.84944651715290    1.34425673144217    1.42199426927859
C        -2.88569798675695    2.16265491662641    1.02152076619090
C        -3.68315720201069    1.75450614356646   -0.04539141927992
C        -3.41825295974782    0.53270277271738   -0.62846205724712
H        -4.01410024492475    0.20221768325891   -1.46404633057630
H        -3.06738510397327    3.09826618556160    1.52551928212711
H        -1.19014578572913    1.63310613873161    2.22570216953023
Ir        0.42150000000009   -0.81650000000011    0.91330000000013
H         0.87259999999989   -2.23029999999956    1.54050000000076
B         0.54488907898447    0.49124842627266   -0.70134455659200
O         0.16282258913953    0.03345494517831   -1.94314441875238
C         0.26603731298026    1.07338723243849   -2.92150965345323
C         0.97186839768673    0.51471477742133   -4.15667522393400
H         1.91468325514175    0.05791430653638   -3.87597076748821
H         1.14360563633533    1.30152963650967   -4.88621085209344
H         0.34445295977629   -0.25170360381575   -4.60526083237798
C        -1.16157642466383    1.48520791211773   -3.30500055402850
H        -1.15328510120319    2.25099226159774   -4.07482298173266
H        -1.68434272673024    0.60890047281893   -3.68248428033029
H        -1.69857943958110    1.84758792381284   -2.43155795553569
C         1.05654674108308    2.19512420017301   -2.16007762749486
O         0.91931656932607    1.81065172879892   -0.78296157564259
C         2.55770845331031    2.17898457069521   -2.47002480121277
H         2.95873200959747    1.20290286698057   -2.21233754203188
H         2.75050333688678    2.41252267712805   -3.51275485972937
H         3.05141118742135    2.91963184563953   -1.84551819339884
C         0.51474924652729    3.61047392468024   -2.35629036885139
H        -0.50375548801143    3.69844038225657   -1.99137493286138
H         1.13501178506696    4.30706021901409   -1.79771223300896
H         0.54831130595582    3.87841647864093   -3.40894721237426
B         1.52864192977452    0.63933792249926    1.90646299643285
O         2.89308353964891    0.79049167954090    1.95284319512058
C         3.23378726265806    2.05430615389446    2.53989911299633
C         4.43682255782927    1.88306822542702    3.46550246371537
H         4.25837007874367    1.09158847201625    4.18573306257429
H         5.30666201608408    1.61378874075747    2.87219109696866
H         4.64287472447786    2.81367827458181    3.98707891757591
C         3.60354375151382    2.98272236927997    1.37655214493992
H         3.86242455157199    3.97812139242522    1.72454655363239
H         4.45616689929521    2.55679453795881    0.85284810720630
H         2.77063201176952    3.02488679888728    0.67930311286601
C         1.90537392086109    2.47453854038085    3.25873658803327
O         0.92325014688998    1.64852799523677    2.62001328667815
C         1.51764610366514    3.94255213373144    3.08157756658458
H         1.33933043009609    4.16828227537040    2.03549561822282
H         0.60119269428532    4.13688916474296    3.63339853208731
H         2.30202486204181    4.58723790957837    3.46836084633766
C         1.88673886164160    2.12521691060691    4.75222164366815
H         2.11661116443237    1.07269815017422    4.89479707262767
H         2.59146234593141    2.73746507311056    5.30629526963682
H         0.88543921515377    2.30213801209440    5.13855065308981
B         2.27820000000157   -1.33090000000032    0.17410000000845
O         3.05678228433845   -2.30509838703067    0.77226701897212
C         4.36933610014977   -2.32678366459924    0.19700150220055
C         5.28754951986236   -1.56055458572424    1.15655925695795
H         4.87182855771840   -0.57138834152642    1.32927939562472
H         5.31204669504544   -2.08780706577767    2.10715516973748
H         6.29898437988746   -1.49053975690190    0.76901778960374
C         4.85078642650009   -3.77253054318353    0.08196257791282
H         4.94060508805064   -4.18921017257191    1.08170156055939
H         5.82217204289767   -3.80640724009392   -0.40305709715753
H         4.14584640009134   -4.38170935961418   -0.47329405100770
C         4.15139607569623   -1.58134641049612   -1.16359488893675
O         2.93368800281688   -0.84831910819006   -0.93358689830049
C         5.26785019793566   -0.61137210364183   -1.54416144494416
H         6.21783251457372   -1.13644357835685   -1.59225256342623
H         5.05733340113011   -0.18256596694583   -2.52062903803236
H         5.33045200112129    0.19606630850440   -0.82278068939342
C         3.88799497756292   -2.53797789009555   -2.33349289870666
H         3.07143186791767   -3.21110309738683   -2.08687128832094
H         3.58977635688562   -1.95559105375579   -3.20185142965429
H         4.77895426144769   -3.10811139063183   -2.57827968260139
H        -3.14442277819265   -3.95590708926236   -2.84908880046479
H        -4.48832151080851    2.37584440611429   -0.40798216600856
C         0.23589999999796   -1.68140000000554    2.96030000000203
C        -0.98956731168814   -1.73591121637068    3.57760831716341
C         1.20700918081745   -1.65392851400316    4.01788800835745
O        -0.84421499018506   -1.70486114248460    4.96726252996972
B        -2.47704899239944   -1.81491849200910    3.14427004546472
C         2.60038953322280   -1.63715556063854    4.05734771955193
C         0.47851017275913   -1.65820501925040    5.22276017355450
O        -3.00236767844382   -2.35132455654861    1.99608465894374
O        -3.45538847644708   -1.41819256325662    4.01581864185920
C         3.21707825737831   -1.60799369456840    5.29006972426882
H         3.14874245199111   -1.63599924283159    3.13100306933216
C         1.09783790512489   -1.62722865998623    6.46475412590445
C        -4.41358595552679   -2.53786932874775    2.19741059816912
C        -4.73274759171536   -1.57187151048482    3.39040735132754
C         2.47804376784480   -1.59834135369516    6.47705145041016
H         4.29546270313775   -1.59025183853570    5.35071554375982
H         0.51704385429915   -1.62452034435897    7.37381717091053
C        -5.18176990744815   -2.23996340184280    0.91421130449681
C        -4.61232537751322   -4.01429094277587    2.56540844661020
C        -5.18203161789320   -0.17947945908754    2.92960161451738
C        -5.73801295876111   -2.10736325422283    4.40814276949693
H         2.99753853500303   -1.56898541468960    7.42329967737319
H        -4.90016409629462   -2.96862803668848    0.15869700661315
H        -4.94962368979743   -1.24902935856696    0.53931582377156
H        -6.24895736964908   -2.31746290628988    1.10235556666492
H        -4.20695041972371   -4.62741559640150    1.76400589139501
H        -5.66517677733806   -4.24513416947669    2.69310895244982
H        -4.06818095275192   -4.24979116597965    3.47707211345261
H        -6.17271309574742   -0.21589651246377    2.48748722295218
H        -4.47205215962420    0.22809756100320    2.21436389342626
H        -5.20163827422451    0.48008546742140    3.79403377009947
H        -5.89416447247676   -1.35320397841808    5.17529176444274
H        -5.36774762364331   -3.00549671543504    4.89116589555205
H        -6.68547440525062   -2.31736403778550    3.92020744838442
