96
 energy: -144.716462666304 gnorm: 0.000183573193 xtb: 6.4.1 (1a32961)
N        -0.91398585496841   -2.03095613686444   -0.36754504478081
C        -2.16111979527457   -1.55755301289323   -0.52830768448948
C        -3.04932729403711   -2.16492516147617   -1.42397586085452
C        -2.64471013470263   -3.26125878527870   -2.15483897315874
C        -1.34972905366158   -3.73857591107332   -1.97790971823430
C        -0.53212546742113   -3.08819699754048   -1.07658273618996
H         0.48023504191536   -3.42461834681303   -0.90244236175149
H        -0.99065783703775   -4.59507814536404   -2.52495558269092
H        -4.05024443193986   -1.78669741649815   -1.54837583758110
C        -2.52420224962516   -0.39720963752254    0.27975908185592
N        -1.58045124492511    0.07768717206162    1.11759488116224
C        -1.87779737318229    1.11646424438007    1.89378847992274
C        -3.10489088101632    1.74932483709929    1.88323306436592
C        -4.08272905535445    1.28527821896953    1.00961886221222
C        -3.78455284711954    0.20611047485971    0.20455738717668
H        -4.53022384391953   -0.16613796764716   -0.47754545847583
H        -3.29290405496180    2.58186383289896    2.54160745125611
H        -1.08172777434846    1.45093640552107    2.54130621131009
Ir        0.42149999999993   -0.81649999999998    0.91329999999995
H         0.87259999999999   -2.23029999999993    1.54049999999998
B         0.42761462730173    0.58115610479160   -0.62968686598733
O        -0.16738594498590    0.27129003486382   -1.83750090375862
C        -0.25400093040892    1.44355718494700   -2.65560680647574
C         0.05899237154139    1.08153945302858   -4.10507663236189
H         0.99744565904791    0.54115553051412   -4.17023024812695
H         0.11042202269827    1.98091688618636   -4.71322126061561
H        -0.73011560022488    0.44069636750901   -4.49089251699211
C        -1.70060000537981    1.94885692603284   -2.55974064560940
H        -1.85726614268036    2.81479750463918   -3.19585763514969
H        -2.36832524670714    1.14967247281823   -2.87547908530338
H        -1.94132428705395    2.20089982151033   -1.52882927324719
C         0.77255263598237    2.40917963723970   -1.97688307505528
O         0.85273476898283    1.88871805891491   -0.64197778939773
C         2.17720865173788    2.28939937471841   -2.58028423025379
H         2.50013970196858    1.25282059363899   -2.52222910387090
H         2.20049835918326    2.64271687186373   -3.60703806518838
H         2.86475941188070    2.88530774205427   -1.98474791941457
C         0.35343659873259    3.87738932203983   -1.94181527574247
H        -0.55234212118144    4.01591715067472   -1.35985535481641
H         1.14515354695791    4.46243173056263   -1.48014094703298
H         0.19376065180535    4.24183001233016   -2.95335768626477
B         1.57848929414436    0.63926035349902    1.86567946586135
O         2.94788455908616    0.74884771373933    1.89481104668256
C         3.32785024650482    2.02491731179131    2.43131966537500
C         4.56437978893517    1.87000412971469    3.31490367733988
H         4.41432746032553    1.10630383737460    4.07086562682863
H         5.40906985322706    1.57370683599044    2.69820984169975
H         4.79851654200722    2.81538177755226    3.79676170967760
C         3.66150848214850    2.91741263040331    1.23021519886082
H         3.94606409900245    3.91780788572187    1.54224158698264
H         4.48732489023807    2.46859773261194    0.68292042292468
H         2.80046775043710    2.95118179457468    0.56769457831977
C         2.03158993338011    2.48211837164489    3.18335540583055
O         1.01403110081386    1.67131950082418    2.57922923727795
C         1.67047042014028    3.95563286485732    3.00431895078275
H         1.45852683996525    4.17273546075646    1.96283954739290
H         0.77966292267297    4.17658013938224    3.58717348381120
H         2.48289658986758    4.58649422548692    3.35442525412318
C         2.05069289055946    2.14738641062702    4.67988212298023
H         2.27254791713232    1.09462143124624    4.82892208314097
H         2.77995638951523    2.75522095830406    5.20660124059125
H         1.06415947939361    2.34176414751520    5.09428298521264
B         2.27820000000059   -1.33089999999991    0.17410000000033
O         3.08062068445339   -2.32833406444970    0.68835166158960
C         4.37451262217366   -2.29568453556231    0.07130118220196
C         5.31480643604351   -1.61433726041247    1.07136774302354
H         4.90665484500535   -0.64181844727343    1.33165176914702
H         5.34925592499487   -2.21642735458711    1.97599804710050
H         6.31972959685127   -1.51649998260843    0.67277772621472
C         4.85353821254945   -3.72447720457699   -0.18409000896657
H         4.97337067387323   -4.22915322875532    0.77098933551763
H         5.81036990809259   -3.71133405922554   -0.69827010412521
H         4.13380444382812   -4.28434321880543   -0.77181679670834
C         4.12212678791699   -1.43819810562735   -1.21875427430967
O         2.88486641840065   -0.77104619829582   -0.92395884127749
C         5.19666368937900   -0.39282123404719   -1.51242322421203
H         6.16436627047361   -0.87052224018601   -1.63750190485925
H         4.94238755067275    0.13177700453388   -2.42995008641335
H         5.24523363176720    0.33415559397657   -0.70932175350009
C         3.88901952566316   -2.28624202383974   -2.47637384443008
H         3.09420822751622   -3.00620277644805   -2.30207487615501
H         3.57356268493171   -1.62973316457582   -3.28373516525306
H         4.79681399241369   -2.80197355268913   -2.77422252745975
H        -3.32026922681410   -3.73804849542433   -2.84864063335962
H        -5.05363330604563    1.75467420185779    0.96250651853475
C         0.23589999999932   -1.68140000000042    2.96030000000035
C        -1.01317467808183   -2.11098253267519    3.39693673543477
C         1.20271532877501   -1.52480059220326    3.95612445806649
C        -1.34649203318014   -2.28828747531188    4.72727366263684
F        -1.99024679056716   -2.39093913128777    2.48143038538485
C         0.88574300421939   -1.70215842543735    5.29048889208391
H         2.20850253653570   -1.26535685956218    3.66655181461440
C        -0.38657539892970   -2.07156826934870    5.69955166768875
H        -2.34492692672107   -2.60147301902758    4.99046400317529
Cl        2.11822373269832   -1.47320552358883    6.49196975353563
H        -0.61604704577628   -2.20300342382673    6.74399961288089
