14
 energy: -24.933820119003 gnorm: 0.000467956736 xtb: 6.4.1 (1a32961)
C        -0.01911804949918    2.11262488526409   -0.01029952373920
C        -1.21498588487443    1.41564590163700   -0.00282821913936
C        -1.20270793035636    0.01833134667172    0.00740772459738
C        -2.42365029731701   -0.69817071477546    0.01597644465554
N        -3.41365465139048   -1.27669836179546    0.02366921864667
C         0.00319903031746   -0.67858418258089    0.01010842698084
C         1.19782659972168    0.03751805757733    0.00249597939592
C         2.42961253676056   -0.66022497105695    0.00528194991466
N         3.42716230752301   -1.22575893440373    0.00651194144720
C         1.18774049996437    1.43481072751717   -0.00748270559804
H        -0.02766174922798    3.19112514452108   -0.01871911357479
H        -2.15853169015233    1.93948896823157   -0.00516912707638
H         0.01197802823152   -1.75819266627861    0.01849071836981
H         2.12276125029918    1.97365479947113   -0.01343371488024
