111
 energy: -159.021555301571 gnorm: 0.000458283735 xtb: 6.4.1 (1a32961)
N        -0.96510000000001   -2.11530000000000   -0.24089999999999
C        -2.24699999999999   -1.69840000000000   -0.36219999999999
C        -3.14040000000001   -2.36820000000000   -1.21200000000000
C        -2.70220000000001   -3.47560000000000   -1.93050000000000
C        -1.37779999999999   -3.89880000000001   -1.78759999999999
C        -0.54290000000000   -3.18670000000000   -0.93510000000000
H         0.49810000000000   -3.45630000000000   -0.78940000000000
H        -0.99570000000000   -4.76029999999999   -2.32770000000000
H        -4.16500000000000   -2.02890000000000   -1.31830000000000
C        -2.62130000000000   -0.50950000000000    0.44100000000000
N        -1.62600000000000    0.07330000000000    1.16020000000000
C        -1.89680000000000    1.15240000000001    1.91690000000000
C        -3.17230000000000    1.70330000000000    1.99650000000000
C        -4.20510000000000    1.11739999999999    1.26269999999999
C        -3.92610000000000    0.00250000000000    0.47820000000000
H        -4.71960000000000   -0.46420000000000   -0.09520000000000
H        -3.34630000000000    2.57510000000000    2.62070000000000
H        -1.04450000000000    1.57420000000000    2.43690000000000
Ir        0.42150000000000   -0.81650000000000    0.91330000000000
H         0.87260000000000   -2.23030000000000    1.54050000000000
B         0.50670000000000    0.41560000000000   -0.81540000000000
O         0.19500000000000   -0.04700000000000   -2.09150000000000
C         0.00650000000000    1.10039999999999   -2.95430000000000
C         0.49019999999999    0.74740000000000   -4.35780000000000
H         1.51610000000000    0.37380000000000   -4.33700000000000
H         0.44730000000000    1.62239999999999   -5.01670000000001
H        -0.14740000000002   -0.03390000000000   -4.78429999999999
C        -1.50120000000001    1.39560000000000   -2.96670000000000
H        -1.75370000000000    2.21459999999999   -3.64850000000000
H        -2.03200000000000    0.49449999999998   -3.28930000000000
H        -1.85170000000000    1.65210000000000   -1.96220000000000
C         0.84230000000000    2.20669999999999   -2.22040000000000
O         0.75200000000000    1.78260000000001   -0.83690000000000
C         2.32930000000000    2.18620000000000   -2.59900000000000
H         2.74130000000000    1.18499999999999   -2.45750000000000
H         2.48870000000000    2.51300000000000   -3.63180000000000
H         2.87200000000000    2.86270000000000   -1.93200000000000
C         0.28440000000000    3.62290000000000   -2.33660000000000
H        -0.72650000000000    3.69040000000000   -1.92910000000000
H         0.92130000000000    4.31480000000000   -1.77610000000000
H         0.26430000000000    3.94810000000000   -3.38320000000002
B         1.56300000000000    0.60960000000001    1.84840000000000
O         2.92780000000000    0.55230000000000    2.15020000000000
C         3.36330000000000    1.88660000000001    2.50259999999999
C         4.53140000000000    1.78589999999999    3.47739999999999
H         4.27910000000000    1.16090000000000    4.33690000000000
H         5.39390000000000    1.33790000000000    2.97340000000000
H         4.82390000000000    2.77870000000001    3.83820000000000
C         3.79700000000000    2.56850000000000    1.19670000000000
H         4.20020000000000    3.57090000000000    1.37680000000000
H         4.56740000000000    1.95560000000000    0.72110000000000
H         2.95239999999999    2.63260000000000    0.50540000000000
C         2.05040000000001    2.50090000000001    3.09319999999999
O         1.03750000000000    1.81619999999999    2.31910000000000
C         1.89100000000000    4.00450000000001    2.88650000000000
H         1.87290000000000    4.25440000000000    1.82410000000000
H         0.94940000000000    4.34260000000000    3.33170000000000
H         2.71079999999999    4.55150000000000    3.36630000000000
C         1.82470000000001    2.13199999999998    4.56520000000000
H         1.92610000000000    1.05330000000001    4.71320000000000
H         2.52610000000000    2.65280000000000    5.22540000000000
H         0.80630000000001    2.41580000000000    4.84900000000000
B         2.27820000000000   -1.33090000000000    0.17410000000000
O         2.89460000000000   -2.57740000000000    0.38450000000000
C         4.26930000000000   -2.48200000000000   -0.07210000000001
C         5.10900000000000   -2.05379999999998    1.14010000000001
H         4.76350000000000   -1.08740000000000    1.51750000000000
H         4.98050000000000   -2.79469999999999    1.93590000000000
H         6.17420000000000   -1.99290000000000    0.89300000000000
C         4.71950000000000   -3.84660000000000   -0.58470000000000
H         4.75280000000000   -4.56130000000001    0.24420000000000
H         5.72329999999999   -3.78370000000000   -1.02010000000000
H         4.03500000000000   -4.23600000000000   -1.34170000000000
C         4.16440000000000   -1.36220000000000   -1.16300000000000
O         3.08519999999999   -0.55030000000000   -0.65400000000000
C         5.40720000000000   -0.48870000000001   -1.31550000000001
H         6.27320000000000   -1.09010000000000   -1.61530000000000
H         5.23300000000000    0.26929999999999   -2.08590000000000
H         5.64270000000000    0.02650000000000   -0.38240000000000
C         3.71800000000001   -1.89830000000001   -2.53110000000000
H         2.82530000000000   -2.52160000000000   -2.42740000000000
H         3.46090000000000   -1.05249999999999   -3.17550000000000
H         4.50569999999999   -2.48290000000000   -3.01790000000000
H        -3.38500000000000   -4.00130000000000   -2.59310000000000
H        -5.21400000000000    1.52080000000000    1.29960000000000
C         0.23590000000000   -1.68140000000000    2.96030000000000
C        -0.98692871313021   -2.20284649436932    3.38206661927285
C         1.22947857874049   -1.61858797573550    3.93780157533693
C        -1.15844822217668   -2.61092421093181    4.69526590696334
H        -1.81091551447520   -2.32362732324827    2.68813071101901
N         1.08581808932342   -2.00952703844849    5.19886514230512
H         2.21936132162947   -1.25431743098903    3.68876718666904
C        -0.08481898573855   -2.53201880854311    5.58463309963695
H        -2.09240490134576   -3.03573000049376    5.03982859468479
C        -0.26942489053722   -3.14830131358076    6.93725218231593
O        -1.36247677850571   -3.65762010884219    7.20612778831548
N         0.76056386539785   -3.21124002469170    7.83313876076254
C         2.04904475117167   -2.54255106355043    7.71912013576023
C         0.53601624066330   -3.93097588916116    9.08200643304923
C         1.95186986254894   -1.07199697658868    8.10915136721087
H         2.40931278489355   -2.62563208453739    6.69580184605541
H         2.73931108712686   -3.06024211853061    8.39056951987527
C         1.16154762505381   -5.32040538412317    9.04465869593335
H        -0.54450890860185   -4.01763339255392    9.22705380538501
H         0.95912607678041   -3.34350051928688    9.90163390113568
H         1.34189552835646   -0.53673295298345    7.38280702671176
H         2.94641299176813   -0.62788718948249    8.12704679295062
H         1.50011083205662   -0.96121399064004    9.09552484019050
H         0.72282144765221   -5.90320241353885    8.23470428110433
H         0.97588253714805   -5.83550779599042    9.98686503193391
H         2.23843994643599   -5.26240856213132    8.88450602521464
