99
 energy: -139.597673088071 gnorm: 0.000525197308 xtb: 6.4.0 (f63f532)
N        -0.90064075240831   -2.06079352474356   -0.35485002349815
C        -2.17058675237818   -1.63399398212812   -0.49421117492501
C        -3.06668331332155   -2.30698652574810   -1.33645295642494
C        -2.64384462155280   -3.40504947990365   -2.05168168250208
C        -1.32139965450638   -3.82250927319329   -1.91182796592446
C        -0.50247253915880   -3.12102634525954   -1.05281820392061
H         0.52661076193839   -3.41572355878714   -0.90175538002173
H        -0.94621316164908   -4.67562100086908   -2.45349155016618
H        -4.08842548546587   -1.97625246601451   -1.42587654474370
C        -2.54046341937171   -0.45295874356229    0.27265441246464
N        -1.60822186781092    0.03242586699204    1.12223106596370
C        -1.91166303989147    1.10234033036103    1.85487279736068
C        -3.12295195705169    1.75807690155454    1.78268457512298
C        -4.08352533429835    1.28702895065537    0.89012509399735
C        -3.78456794468084    0.17543239750504    0.13351360671784
H        -4.51077963179750   -0.19933647466860   -0.56885953169029
H        -3.31573121915202    2.61636548720765    2.40594635150551
H        -1.13061097297556    1.44067218376762    2.51812965457387
Ir        0.42149999999985   -0.81649999999953    0.91330000000002
H         0.87259999999999   -2.23029999999991    1.54049999999997
B         0.39588596315448    0.61625713500991   -0.60451800038275
O        -0.25794209509010    0.32465547514012   -1.78945609375627
C        -0.34217817792749    1.49697240026305   -2.60553622767639
C        -0.09924109283512    1.12670940782043   -4.06676103583684
H         0.81650653514062    0.55400892985281   -4.16945314193429
H        -0.03975736199526    2.02543105307760   -4.67538207357538
H        -0.92462047493763    0.51514538911002   -4.42360880565378
C        -1.76684327144400    2.04994464723530   -2.45381351056576
H        -1.92089776714141    2.91755653569719   -3.08854593709096
H        -2.47372325268751    1.27250717571938   -2.73728423166551
H        -1.95741551927624    2.31513304054482   -1.41566927649483
C         0.73969514778575    2.43167255632698   -1.97157842835509
O         0.85467482584993    1.91386563150621   -0.63970236964377
C         2.11600397253169    2.26523067408749   -2.62767954058074
H         2.40635974520892    1.21832830865667   -2.58186086846331
H         2.11361213329613    2.61873665272068   -3.65480016771938
H         2.84474815309755    2.83652633924282   -2.05733541869781
C         0.36928706269633    3.91285830005659   -1.92799040146423
H        -0.50527077204523    4.08235813757358   -1.30761286721534
H         1.19860147515321    4.47475642982246   -1.50500306944705
H         0.17648878867109    4.27756816836175   -2.93379507946813
B         1.55276944117310    0.65463691186667    1.86404145456792
O         2.92187374971119    0.79356561232787    1.88367879591160
C         3.28065753772425    2.07408579792151    2.42072501685736
C         4.52138574400861    1.93784364006228    3.30214896965685
H         4.38473787067302    1.16650409164582    4.05269402507231
H         5.37005361352543    1.65973021633048    2.68245085451844
H         4.73912788842045    2.88495108864550    3.78839587594359
C         3.59883847984647    2.97566340896258    1.22168824597378
H         3.86528465240749    3.98060121695515    1.53552497877170
H         4.43304102117318    2.54282793849834    0.67389686088023
H         2.73788089848761    2.99535195346869    0.55847774669884
C         1.97852440517471    2.50768773862950    3.17680990991055
O         0.97370479082276    1.68358550979881    2.57339379107595
C         1.59375643038494    3.97619554887233    3.00432005561104
H         1.37708776654403    4.19328471713572    1.96369089533778
H         0.69974475533618    4.18026039986292    3.58850927135558
H         2.39595802026749    4.61960134893741    3.35537418015849
C         2.00654914172312    2.16357338633568    4.67151101584792
H         2.22937407176790    1.10874083143689    4.80480528079066
H         2.73619678055483    2.76972650724626    5.19964254173432
H         1.02055191139775    2.35068200116538    5.09030087207134
B         2.27819999999866   -1.33089999999993    0.17410000000007
O         3.11946136030470   -2.28117873632177    0.71436291825918
C         4.39940594097857   -2.23691632092406    0.07186572548070
C         5.33463728519917   -1.47453915880399    1.01688099151942
H         4.89560994247421   -0.50598852905587    1.23886501670114
H         5.40817282655798   -2.02972118801329    1.94869552982113
H         6.32731631318522   -1.36103462733754    0.59236392056951
C         4.92397569602839   -3.65965883606777   -0.12153886345630
H         5.08359606811219   -4.10911192424602    0.85497394325403
H         5.86765146909901   -3.63980616708908   -0.65959202000566
H         4.21162061461012   -4.27441762726204   -0.66149376445027
C         4.09483410004808   -1.45456444676635   -1.25408682089670
O         2.84609095615849   -0.80819477418748   -0.96562002817332
C         5.13284038416957   -0.39660225685706   -1.62490833688760
H         6.11214639263273   -0.85244869349614   -1.74178475511139
H         4.84772680608567    0.06922311744384   -2.56490603544511
H         5.17319592273526    0.37475736831789   -0.86370920245583
C         3.86170991010636   -2.37401060946878   -2.46086072934925
H         3.09762641365608   -3.11127022286864   -2.22995444054283
H         3.50409848450635   -1.77149077783635   -3.29254202846955
H         4.77968300786944   -2.87373160269204   -2.75502403014969
H        -3.32338369888214   -3.93104538087463   -2.70502155744149
H        -5.03901644048612    1.77992698345059    0.79143324931991
C         0.23589999999756   -1.68139999999938    2.96029999999791
C        -1.04576557523757   -2.07332562236559    3.33365536533454
C         1.19098813965657   -1.51049203075898    3.95813604877985
C        -1.40971602891573   -2.20083522675685    4.66902973791356
H        -1.79183671784112   -2.28970755064363    2.57992605064870
C         0.84227112311332   -1.63825143942902    5.29229101780346
H         2.20865784379548   -1.28243679930276    3.68009088724777
C        -2.80993797710665   -2.58461423333014    5.05281738895114
C        -0.45375612724400   -1.96813027573562    5.64996575585562
H         1.58736257675157   -1.49063537878906    6.06234596153179
H        -2.79940381108292   -3.38285274873436    5.79332525337409
H        -3.37332058155377   -2.91809323808377    4.18421272528785
H        -3.32719023086875   -1.73047250918037    5.49072483316182
H        -0.72167976317809   -2.06478475544470    6.69291333191451
