107
 energy: -165.281217711350 gnorm: 0.003776858103 xtb: 6.4.1 (1a32961)
N        -0.96510000000000   -2.11530000000000   -0.24089999999999
C        -2.24700000000000   -1.69840000000002   -0.36219999999999
C        -3.14040000000001   -2.36820000000001   -1.21199999999995
C        -2.70219999999998   -3.47560000000000   -1.93050000000001
C        -1.37779999999999   -3.89880000000001   -1.78759999999999
C        -0.54290000000002   -3.18669999999999   -0.93510000000000
H         0.49809999999999   -3.45630000000000   -0.78940000000000
H        -0.99570000000000   -4.76030000000001   -2.32769999999999
H        -4.16500000000000   -2.02890000000000   -1.31830000000000
C        -2.62130000000001   -0.50950000000001    0.44100000000000
N        -1.62599999999999    0.07330000000001    1.16020000000000
C        -1.89680000000001    1.15240000000001    1.91690000000001
C        -3.17229999999999    1.70329999999999    1.99650000000001
C        -4.20510000000000    1.11740000000001    1.26270000000000
C        -3.92610000000001    0.00250000000000    0.47820000000000
H        -4.71960000000000   -0.46420000000000   -0.09520000000001
H        -3.34630000000000    2.57510000000000    2.62070000000000
H        -1.04450000000000    1.57420000000000    2.43690000000000
Ir        0.42150000000000   -0.81650000000000    0.91330000000000
H         0.87260000000000   -2.23030000000000    1.54050000000000
B         0.50670000000000    0.41560000000000   -0.81540000000000
O         0.19500000000000   -0.04699999999999   -2.09150000000000
C         0.00649999999999    1.10039999999999   -2.95430000000001
C         0.49020000000000    0.74739999999999   -4.35780000000001
H         1.51609999999998    0.37379999999999   -4.33700000000000
H         0.44730000000000    1.62240000000003   -5.01670000000000
H        -0.14740000000000   -0.03390000000001   -4.78430000000000
C        -1.50120000000001    1.39559999999999   -2.96670000000000
H        -1.75370000000000    2.21460000000000   -3.64850000000000
H        -2.03199999999998    0.49449999999998   -3.28930000000000
H        -1.85170000000000    1.65210000000001   -1.96220000000001
C         0.84229999999999    2.20669999999996   -2.22040000000000
O         0.75200000000000    1.78259999999999   -0.83690000000001
C         2.32930000000000    2.18620000000001   -2.59899999999999
H         2.74130000000000    1.18500000000000   -2.45750000000000
H         2.48870000000000    2.51300000000000   -3.63180000000000
H         2.87200000000000    2.86269999999999   -1.93199999999999
C         0.28440000000001    3.62290000000001   -2.33660000000000
H        -0.72649999999999    3.69040000000000   -1.92910000000000
H         0.92130000000001    4.31480000000000   -1.77609999999999
H         0.26430000000000    3.94810000000000   -3.38320000000001
B         1.56300000000000    0.60960000000000    1.84840000000000
O         2.92780000000000    0.55230000000001    2.15020000000000
C         3.36329999999999    1.88660000000000    2.50259999999998
C         4.53140000000001    1.78590000000002    3.47740000000002
H         4.27910000000000    1.16090000000001    4.33690000000001
H         5.39390000000000    1.33789999999999    2.97339999999999
H         4.82390000000001    2.77870000000000    3.83820000000001
C         3.79700000000000    2.56850000000000    1.19670000000001
H         4.20020000000000    3.57090000000000    1.37680000000000
H         4.56740000000000    1.95560000000000    0.72110000000001
H         2.95240000000000    2.63260000000000    0.50539999999999
C         2.05040000000000    2.50089999999999    3.09319999999998
O         1.03750000000000    1.81620000000000    2.31910000000001
C         1.89100000000000    4.00450000000001    2.88649999999998
H         1.87290000000000    4.25440000000000    1.82409999999999
H         0.94940000000001    4.34260000000000    3.33170000000001
H         2.71080000000000    4.55149999999999    3.36629999999999
C         1.82470000000000    2.13200000000000    4.56520000000001
H         1.92610000000000    1.05330000000001    4.71320000000000
H         2.52610000000001    2.65280000000001    5.22540000000000
H         0.80630000000001    2.41580000000000    4.84900000000000
B         2.27820000000000   -1.33090000000000    0.17410000000000
O         2.89460000000000   -2.57740000000000    0.38450000000000
C         4.26930000000000   -2.48200000000000   -0.07210000000000
C         5.10900000000000   -2.05380000000000    1.14010000000000
H         4.76350000000000   -1.08740000000000    1.51750000000000
H         4.98050000000000   -2.79470000000000    1.93590000000000
H         6.17420000000000   -1.99290000000000    0.89300000000000
C         4.71950000000000   -3.84660000000000   -0.58470000000001
H         4.75280000000000   -4.56130000000000    0.24420000000000
H         5.72330000000000   -3.78370000000000   -1.02010000000000
H         4.03500000000000   -4.23600000000000   -1.34170000000000
C         4.16440000000000   -1.36219999999999   -1.16300000000000
O         3.08520000000000   -0.55030000000001   -0.65400000000000
C         5.40720000000000   -0.48870000000000   -1.31550000000000
H         6.27320000000000   -1.09010000000000   -1.61530000000000
H         5.23300000000000    0.26929999999999   -2.08590000000000
H         5.64270000000000    0.02650000000000   -0.38240000000001
C         3.71800000000000   -1.89829999999999   -2.53109999999999
H         2.82530000000000   -2.52160000000000   -2.42740000000000
H         3.46090000000000   -1.05250000000000   -3.17550000000000
H         4.50570000000000   -2.48289999999999   -3.01790000000000
H        -3.38500000000000   -4.00130000000000   -2.59309999999999
H        -5.21400000000000    1.52080000000000    1.29960000000000
C         0.23590000000000   -1.68140000000000    2.96029999999999
C        -0.99646528948374   -2.17834732794092    3.38415202578787
C         1.17685575628682   -1.58900158547577    4.02018642672587
C        -1.26601422064849   -2.58611146143556    4.71145600999855
H        -1.76819670761612   -2.38244703399975    2.65040823553763
C         2.65594990263495   -1.77997474638761    3.92511059942607
C         0.85179257258498   -1.66738485102693    5.36522008755059
C        -0.35008060790511   -2.25719546219602    5.74387321664110
C        -2.32433348641618   -3.42678721366515    5.11079993639546
F         3.13017176468734   -1.90627596023557    2.69665048880882
F         3.41317551929701   -0.87206390261095    4.57767418072595
F         2.99840410405984   -2.96067701981658    4.52515759649241
H         1.61625251147797   -1.53285990582157    6.12157986623427
N        -0.41134811817378   -2.71351871758202    7.00453040556017
C        -2.33224204446261   -3.95992140571162    6.38204808941111
H        -3.09139852455787   -3.70355254024397    4.39823990274234
C        -1.33278186763191   -3.61238170091086    7.30442366707088
H        -3.09570398056294   -4.66674885360001    6.67783371331691
C        -1.17434717584873   -4.27950112406948    8.63509878906028
H        -2.09719397007027   -4.26427484784079    9.21395855659353
H        -0.38105160968745   -3.77814249476694    9.18891312546404
H        -0.88107349203600   -5.31986306842649    8.48141522922819
