107
 energy: -165.323043686055 gnorm: 0.000590189641 xtb: 6.4.1 (1a32961)
N        -0.87354121341794   -2.14255045976111   -0.38581800445305
C        -2.14832690521769   -1.75831952552977   -0.56648680610989
C        -2.97474538919199   -2.41524381452662   -1.48614151358766
C        -2.47913886963038   -3.47195210378556   -2.22025508191356
C        -1.15837131966322   -3.85775638077382   -2.02090518118652
C        -0.40328885498101   -3.16199361106445   -1.09618092022863
H         0.62695263408334   -3.42409184875679   -0.90511059931655
H        -0.72866649976105   -4.67977342067215   -2.56965632578607
H        -3.99549628872089   -2.10342934806748   -1.63170603974283
C        -2.61323252979838   -0.62870127720120    0.23722306913284
N        -1.71358345665725   -0.06407298701392    1.06534003617387
C        -2.09383837911852    0.96235790206155    1.81903890032094
C        -3.37195593694220    1.48697062148088    1.80368051406393
C        -4.31167708555939    0.91961986719405    0.95014958343457
C        -3.92466017359094   -0.14307844245768    0.16049623188508
H        -4.63995046434027   -0.59157727441599   -0.50834377199860
H        -3.62815114986034    2.31327439695626    2.44636173154347
H        -1.32663000329295    1.37253577369442    2.45664758125020
Ir        0.42149999999996   -0.81649999999996    0.91330000000011
H         0.87259999999993   -2.23029999999986    1.54050000000020
B         0.30979555436319    0.54892841599274   -0.65259315914847
O        -0.06384636204427    0.14183615608577   -1.92256842533604
C        -0.47313554516204    1.27003509778027   -2.70555667568242
C         0.05383185267747    1.12094971441258   -4.13129357698647
H         1.12587551535863    0.95476253763548   -4.13486777654296
H        -0.18075519158508    2.00960399739354   -4.71133099015693
H        -0.42409668668558    0.26204485856136   -4.59650640816502
C        -2.00847968951075    1.26101336252555   -2.74219780466692
H        -2.38987968052974    2.06201639619618   -3.36839578267899
H        -2.34004794588435    0.30619266839600   -3.14535696083676
H        -2.41160343272389    1.36034403093091   -1.73700342507194
C         0.10979317216251    2.48132003412032   -1.90117543339117
O         0.31993064736949    1.92300248504374   -0.59654879220520
C         1.47468786844570    2.93850183653067   -2.42974224025828
H         2.16727754487648    2.10087625102519   -2.41955664124569
H         1.39039968786643    3.34629841587158   -3.43276713442923
H         1.87005569801638    3.70688582196717   -1.77009470470591
C        -0.81755333066019    3.69145826739211   -1.79081419591934
H        -1.72830616156598    3.44199956754676   -1.25503404056146
H        -0.30847591174061    4.47821123349302   -1.23927415449080
H        -1.06805736034387    4.06361841322810   -2.78055364304090
B         1.40734567428810    0.74337570338301    1.90632866987093
O         2.71334896617097    1.13251609762760    1.86089179677022
C         2.85848054556133    2.45960012653501    2.38426185378069
C         4.12965384608955    2.54927772554679    3.22691831227383
H         4.13754522450399    1.79800783521787    4.00848944439036
H         4.98659296566618    2.37350304983114    2.58255622537376
H         4.21619831286010    3.53817007076052    3.66872677972074
C         2.99516438566395    3.38206516142121    1.16756731699547
H         3.11039482136250    4.42059530505419    1.46324850763238
H         3.86923790214233    3.06968255909227    0.60239792935901
H         2.12500529578512    3.25638435131247    0.53049517286178
C         1.51842176518304    2.68131740532558    3.17431809804681
O         0.68507600309994    1.61787109336676    2.69286532724771
C         0.81939715615299    4.01159080389271    2.88658639178459
H         0.52714163522495    4.06924413075870    1.84338973364624
H        -0.07774672158573    4.07812362402661    3.49738629251413
H         1.47281152283869    4.84300679932507    3.13423937479820
C         1.65816018777951    2.51938566505501    4.69248256387536
H         2.10991453585903    1.56409543463800    4.93589232240830
H         2.25800263218806    3.32215829128879    5.10986975805283
H         0.66783924077946    2.54797563498884    5.14117581053739
B         2.27819999999911   -1.33089999999997    0.17410000000109
O         2.56047342142680   -2.64500705578354   -0.15551274878100
C         3.80768427834224   -2.73493719060278   -0.85720092480707
C         4.83239028164889   -3.33777249141474    0.10981327250475
H         4.91707333252499   -2.71198315306648    0.99280359942122
H         4.47848608736443   -4.31618531235081    0.42552691964945
H         5.80189194139635   -3.44689447519505   -0.36601953918879
C         3.63794843668756   -3.67202609717001   -2.05419467978238
H         3.42490206868561   -4.67328620865249   -1.68845518132426
H         4.55245058327882   -3.70114147028932   -2.63947778666614
H         2.81278198297504   -3.35466148829826   -2.68331439223522
C         4.10535186867667   -1.23837586881867   -1.22544050309240
O         3.23630452497720   -0.50840893101296   -0.34957005210303
C         5.55041517394320   -0.79508763561389   -1.00650725000541
H         6.22251723927602   -1.38400414083925   -1.62465806495986
H         5.64151590528273    0.25162267507458   -1.28350910922206
H         5.82910907716170   -0.89208305115210    0.03662548288571
C         3.67983558784227   -0.87564916462303   -2.65612903574197
H         2.62106275907062   -1.08576550822076   -2.78781906866417
H         3.83019312069145    0.19218740341765   -2.79661393472346
H         4.26652163552249   -1.41314481604224   -3.39456392472528
H        -3.10680309773045   -3.98505030558092   -2.93308128559238
H        -5.32160171607173    1.29844590922213    0.90432605485709
C         0.23589999999907   -1.68139999999828    2.96030000000248
C        -1.07310096965709   -2.00163897350699    3.27747500052729
C         1.15134270591768   -1.67964944509081    4.04693763218946
C        -1.52326278931475   -2.17341532236281    4.59663156714839
H        -1.80106091099932   -2.14705325939129    2.49278455320983
C         2.64568906795035   -1.62250354553153    3.90515452556252
C         0.74307182157188   -1.80320375295869    5.35635975665150
C        -0.60585018605093   -2.03515345133272    5.67120569771642
C        -2.85657854776112   -2.50418123929212    4.93763922270726
F         3.15965574294441   -1.79239338144825    2.68836388140653
F         3.18174371162799   -0.48382187717574    4.39229206554292
F         3.23027250544329   -2.60318092431902    4.65228674290154
H         1.45609610301295   -1.77415456937609    6.16678623993995
N        -0.96232548701967   -2.18488934387715    6.96218143658628
C        -3.19096991977433   -2.66338414846152    6.25098735483262
H        -3.58837430723951   -2.63025998972844    4.15180666215169
C        -2.20077636365549   -2.48994376678983    7.25065345442795
H        -4.19716577672092   -2.92094114000058    6.54522514006765
C        -2.54697296846330   -2.67016845879332    8.69408949861478
H        -3.34431026368103   -1.98668404040242    8.97980901039530
H        -1.66919566367635   -2.47972893165349    9.30387943731730
H        -2.89344911394130   -3.68734675705118    8.86938152549721
