108
 energy: -152.606496192533 gnorm: 0.014437594027 xtb: 6.4.0 (f63f532)
N        -0.96509999999999   -2.11530000000000   -0.24090000000000
C        -2.24700000000000   -1.69840000000001   -0.36219999999997
C        -3.14039999999995   -2.36820000000003   -1.21200000000004
C        -2.70220000000002   -3.47560000000002   -1.93050000000000
C        -1.37779999999992   -3.89880000000001   -1.78760000000006
C        -0.54290000000000   -3.18669999999999   -0.93509999999993
H         0.49810000000001   -3.45630000000000   -0.78940000000000
H        -0.99570000000000   -4.76030000000000   -2.32770000000002
H        -4.16499999999999   -2.02890000000001   -1.31830000000000
C        -2.62130000000000   -0.50949999999999    0.44099999999997
N        -1.62600000000001    0.07330000000000    1.16020000000002
C        -1.89680000000001    1.15239999999998    1.91690000000000
C        -3.17229999999999    1.70330000000001    1.99650000000002
C        -4.20509999999997    1.11739999999998    1.26269999999998
C        -3.92609999999998    0.00250000000000    0.47819999999994
H        -4.71960000000000   -0.46420000000000   -0.09519999999999
H        -3.34629999999999    2.57510000000000    2.62069999999998
H        -1.04450000000002    1.57420000000001    2.43690000000000
Ir        0.42150000000000   -0.81650000000000    0.91330000000000
H         0.87260000000000   -2.23030000000000    1.54050000000000
B         0.50670000000000    0.41560000000000   -0.81540000000001
O         0.19499999999999   -0.04700000000000   -2.09150000000001
C         0.00650000000000    1.10040000000000   -2.95430000000000
C         0.49019999999996    0.74740000000002   -4.35780000000001
H         1.51610000000004    0.37379999999999   -4.33700000000000
H         0.44730000000000    1.62240000000002   -5.01669999999999
H        -0.14740000000002   -0.03390000000002   -4.78430000000001
C        -1.50119999999999    1.39559999999997   -2.96670000000001
H        -1.75369999999999    2.21459999999999   -3.64850000000000
H        -2.03199999999999    0.49449999999999   -3.28930000000000
H        -1.85170000000000    1.65210000000000   -1.96220000000000
C         0.84230000000003    2.20670000000001   -2.22040000000001
O         0.75200000000000    1.78260000000000   -0.83690000000000
C         2.32929999999995    2.18619999999999   -2.59899999999997
H         2.74130000000000    1.18499999999999   -2.45750000000000
H         2.48870000000002    2.51299999999999   -3.63179999999999
H         2.87200000000000    2.86270000000002   -1.93200000000003
C         0.28439999999995    3.62289999999999   -2.33659999999997
H        -0.72650000000002    3.69040000000000   -1.92910000000000
H         0.92130000000000    4.31480000000001   -1.77609999999999
H         0.26430000000000    3.94810000000000   -3.38320000000000
B         1.56299999999998    0.60960000000000    1.84840000000001
O         2.92780000000002    0.55229999999999    2.15020000000000
C         3.36330000000001    1.88660000000002    2.50259999999991
C         4.53139999999997    1.78590000000003    3.47739999999995
H         4.27910000000000    1.16090000000002    4.33689999999999
H         5.39389999999998    1.33790000000000    2.97340000000002
H         4.82390000000000    2.77869999999999    3.83819999999999
C         3.79700000000000    2.56849999999999    1.19669999999999
H         4.20020000000000    3.57089999999999    1.37679999999999
H         4.56740000000000    1.95560000000000    0.72109999999999
H         2.95240000000002    2.63260000000000    0.50540000000001
C         2.05040000000000    2.50090000000001    3.09319999999997
O         1.03750000000001    1.81620000000004    2.31910000000000
C         1.89100000000000    4.00450000000002    2.88649999999999
H         1.87290000000000    4.25440000000001    1.82410000000002
H         0.94939999999999    4.34260000000000    3.33170000000000
H         2.71079999999999    4.55150000000000    3.36630000000001
C         1.82470000000002    2.13200000000000    4.56520000000004
H         1.92610000000000    1.05329999999996    4.71320000000002
H         2.52610000000001    2.65279999999999    5.22539999999999
H         0.80630000000002    2.41580000000000    4.84899999999999
B         2.27820000000001   -1.33090000000000    0.17410000000001
O         2.89460000000000   -2.57740000000000    0.38450000000000
C         4.26930000000001   -2.48200000000001   -0.07210000000001
C         5.10900000000001   -2.05380000000000    1.14009999999995
H         4.76350000000000   -1.08739999999997    1.51750000000001
H         4.98050000000001   -2.79470000000002    1.93589999999999
H         6.17420000000000   -1.99290000000001    0.89300000000000
C         4.71950000000000   -3.84660000000000   -0.58470000000005
H         4.75280000000000   -4.56129999999999    0.24420000000001
H         5.72329999999999   -3.78370000000000   -1.02010000000000
H         4.03500000000000   -4.23599999999999   -1.34170000000000
C         4.16440000000002   -1.36219999999999   -1.16300000000002
O         3.08520000000000   -0.55029999999999   -0.65399999999999
C         5.40720000000002   -0.48869999999999   -1.31550000000002
H         6.27320000000001   -1.09010000000002   -1.61530000000000
H         5.23300000000000    0.26929999999999   -2.08590000000000
H         5.64269999999998    0.02650000000001   -0.38240000000000
C         3.71800000000006   -1.89830000000002   -2.53109999999992
H         2.82530000000002   -2.52159999999998   -2.42740000000000
H         3.46090000000000   -1.05250000000000   -3.17550000000000
H         4.50569999999998   -2.48289999999997   -3.01789999999999
H        -3.38500000000001   -4.00130000000000   -2.59310000000001
H        -5.21400000000000    1.52080000000001    1.29960000000000
C         0.23590000000002   -1.68140000000001    2.96029999999998
C        -1.10473523413941   -1.84799106895198    3.47525087393551
C         1.25114455156218   -2.04198892273868    3.84876502775370
C        -1.28410973707150   -2.08014021476866    4.84257188157092
C        -2.47862600492613   -2.06491123727579    2.82262868010148
C         1.00758451722212   -2.46446598376601    5.14735563206702
H         2.26641882580643   -2.05857425292354    3.47734149636767
C        -0.25981296666181   -2.42709350507521    5.69871642247710
H        -2.29100635555412   -2.10690698295808    5.23688069447566
C        -3.79410358529813   -1.54534182247287    3.48924648774547
H        -2.60589414365506   -3.15558512453799    2.79286633921973
H        -2.48447452547548   -1.78190538113511    1.78168549773198
Br        2.40156748191283   -3.23903982247246    6.18340147868905
H        -0.47700114514110   -2.73111312987059    6.71365628044415
C        -3.73217681775506   -0.17757478553605    4.18845076571910
C        -5.01542807597693   -1.58161412573913    2.54406375028475
H        -4.04275172171443   -2.27377548468097    4.26764388895278
H        -4.19709734450698   -0.23073463019305    5.17400150507821
H        -4.27993496390570    0.58571961933086    3.63767550568437
H        -2.70760896271204    0.17488156090138    4.30671333643936
H        -4.81508049794597   -2.11067065009683    1.61250838259027
H        -5.35723385947950   -0.57948512358124    2.28823230967971
H        -5.86924702294843   -2.06583521469461    3.01949818736868
