24
 energy: -32.144330353951 gnorm: 0.000538934566 xtb: 6.4.0 (f63f532)
C         2.39619778996733   -0.51323999143318    1.35204531790520
C         3.06135938296547   -0.06071430565578    0.21678213417121
C         4.55962152811799   -0.09565061408152    0.15153899472037
C         5.09870728274360   -1.52100729966594   -0.07119717317230
C         4.65049152681391   -2.06857569978368   -1.42386731386548
C         6.62310165647657   -1.52091741533656    0.02463726901775
C         2.30577312074145    0.40079029866031   -0.85509230329835
C         0.92274992382965    0.41083126602373   -0.80474093211227
C         0.29113009892827   -0.04870110857523    0.33647859330363
Br       -1.62816748142452   -0.04403699850229    0.41754394046280
C         1.01497621863483   -0.51177357839624    1.42103236463033
H         2.96407666064186   -0.86851985813933    2.19881250124390
H         4.96879738331068    0.28717355955282    1.08912162613450
H         4.90971208897774    0.54418815462586   -0.66015022165550
H         4.69761527073126   -2.16889436245859    0.71603321057455
H         5.04415251387211   -1.45449233690132   -2.23096838462765
H         3.56515160848200   -2.08000463022089   -1.49491945549140
H         5.01302754480009   -3.08494613097837   -1.55930835821526
H         7.05101796952989   -0.87076736620413   -0.73587610021391
H         7.01220791515810   -2.52539716298644   -0.12526361338418
H         6.94977814850770   -1.16927925639247    1.00092203532606
H         2.80052514660122    0.75970206523075   -1.74512910801965
H         0.34382217579226    0.77000021405472   -1.64173536547135
H         0.50681452579997   -0.86291744243665    2.30586034203718
