96
 energy: -144.813520238703 gnorm: 0.000211652609 xtb: 6.4.1 (1a32961)
N        -0.88625632537276   -1.95960253371356   -0.49173045657682
C        -2.10155275735745   -1.42562928994181   -0.69777427468521
C        -2.91734588123133   -1.87944491548236   -1.73860407457289
C        -2.47787722248006   -2.89608681991907   -2.56060851283688
C        -1.22177845957760   -3.44378353919053   -2.32995391226957
C        -0.46953087954890   -2.93574993317856   -1.28965394337720
H         0.51433938673463   -3.32750121951662   -1.07399326691156
H        -0.83845811329726   -4.24222337353135   -2.94376313649461
H        -3.88509572713290   -1.44036309722579   -1.91171808263326
C        -2.51195128766004   -0.35968007491816    0.21665678555195
N        -1.60056695936035    0.05294539095006    1.12020002218843
C        -1.93820306663097    1.00885609178366    1.98156208437058
C        -3.18114336457804    1.61079347284754    2.00328459749493
C        -4.13082115478844    1.19966114376649    1.07552243581034
C        -3.78865266032330    0.20888548294845    0.17832979960356
H        -4.51757533726762   -0.13060153758715   -0.53717814767626
H        -3.40196512081945    2.37400027213147    2.73162188066714
H        -1.16488475396116    1.30455469068385    2.67466111107599
Ir        0.42150000000015   -0.81650000000008    0.91330000000029
H         0.87259999999992   -2.23030000000000    1.54050000000017
B         0.46375078203147    0.63948337467862   -0.58728163476772
O        -0.26041286332129    0.45354043724096   -1.74695114581798
C        -0.28983101903148    1.67037540851669   -2.50427122102236
C        -0.16003052669259    1.35239335122330   -3.99108573023792
H         0.70358020095014    0.72293818956198   -4.17750458609504
H        -0.07214924364675    2.27232533864473   -4.56292973677914
H        -1.04800267013469    0.81738272125655   -4.31891139356676
C        -1.65364859450143    2.32445949790490   -2.24200068058654
H        -1.76881842521779    3.23715010708821   -2.81870831504654
H        -2.43571841659171    1.62356598850059   -2.52663882377380
H        -1.76614193497676    2.54249833145834   -1.18179104157454
C         0.89910470778421    2.48106079043685   -1.89110782595837
O         1.04200689541447    1.88409145583699   -0.59218371339126
C         2.21838190584093    2.24115948419177   -2.63408258319885
H         2.42401070593468    1.17384432788094   -2.66067401755226
H         2.18616191691367    2.64985848387083   -3.63965123548566
H         3.02332706208104    2.72150797563436   -2.08268853454401
C         0.65394197376174    3.98181173745901   -1.75033863796974
H        -0.16430728869551    4.18488068107861   -1.06626407631906
H         1.55062113460384    4.45511022089831   -1.35702842733772
H         0.42964805283388    4.41398419149162   -2.72200296049158
B         1.54783860657617    0.66856536388939    1.85874150249271
O         2.90958309300217    0.79147539112294    1.90510854262904
C         3.28260062834023    2.06636976369046    2.45053003756873
C         4.43942600068294    1.87966445997987    3.43221221883550
H         4.18836679156591    1.16796381567897    4.21223182057844
H         5.30182598336128    1.49603786846503    2.89304784003055
H         4.70374537456532    2.83143205772000    3.88423438855919
C         3.75410295182375    2.92021247934195    1.26781427411947
H         4.01344995659623    3.92677560977470    1.58050319871853
H         4.63229781562347    2.45060867011825    0.83047336107839
H         2.97241702832218    2.94217563808198    0.51365471812125
C         1.94522979680386    2.58191559667267    3.09523190836611
O         0.95451918740029    1.70490405100985    2.53720929063187
C         1.57739131680287    4.02154102820021    2.73662428545435
H         1.43283128764856    4.11940286733589    1.66587062812082
H         0.64581499523035    4.28311356631822    3.23239760061047
H         2.35346151151216    4.70428989060636    3.07014003926971
C         1.89267879638411    2.41884985140953    4.61924820057742
H         2.08984649981173    1.38900784189897    4.90626252079430
H         2.61072663868966    3.07183072311023    5.10480607105957
H         0.89424958637898    2.67645125776138    4.96594046175724
B         2.27820000000178   -1.33090000000104    0.17409999999885
O         3.16659479892073   -2.16958486267693    0.80780349064370
C         4.41901625339979   -2.18898251215041    0.10736133443033
C         5.37934967854263   -1.29807951217001    0.90173377563336
H         4.93469281052272   -0.31407355404155    1.01806865098037
H         5.50570332096940   -1.72546527045933    1.89351176187600
H         6.34961268742777   -1.22815859455013    0.42021182646488
C         4.96122578217842   -3.61766310950494    0.07809213576866
H         5.17602547299407   -3.93120165829038    1.09634453682311
H         5.87799031520575   -3.65726785580773   -0.50315155049706
H         4.23631584352510   -4.30859942606879   -0.33911528478370
C         4.04131789608203   -1.59279153486118   -1.29514981298922
O         2.78276494033354   -0.94393301491015   -1.04177622167777
C         5.03115245599633   -0.56639045198278   -1.84224820512551
H         6.01821635467934   -1.00946854988611   -1.93945278306919
H         4.69713523541849   -0.23692055966803   -2.82285277827570
H         5.07903646538640    0.29987123609415   -1.19141562969848
C         3.78870882509007   -2.66534297507587   -2.36261265493512
H         3.06054730935378   -3.38853850242340   -2.00610790856223
H         3.37984756315628   -2.18493909337526   -3.24806717895455
H         4.71017113562051   -3.17356592663019   -2.62930419142517
H        -3.09947622938929   -3.25689314560839   -3.36554342362219
H        -5.11577022242964    1.64000701582483    1.05832515258788
C         0.23590000000015   -1.68139999999910    2.96030000000174
C        -0.94518587912700   -2.19620409738048    3.50190382927128
C         1.22280193090874   -1.39469208140892    3.91468584811260
C        -1.15390834368444   -2.25249289047025    4.87506141590880
Br       -2.33934846313633   -2.90801226849870    2.41365668246360
C         0.93749896961407   -1.48819482152532    5.27274179171734
H         2.20790953999614   -1.10257660234280    3.58747084724229
N        -0.24947770502775   -1.88428078086994    5.75399440256050
H        -2.08931081142937   -2.61374822274209    5.28215953618371
C         1.94137873861002   -1.15558948350940    6.21745646114138
N         2.77690849444699   -0.87676504780862    6.95284406445487
