99
 energy: -148.036898118930 gnorm: 0.000233619442 xtb: 6.4.1 (1a32961)
N        -0.87940408839916   -1.99876553452259   -0.42883645603734
C        -2.11261394244370   -1.49827065326176   -0.63620245281272
C        -2.94051350296457   -2.01671840176643   -1.63988713670178
C        -2.49416679875600   -3.05107901759951   -2.43246191838074
C        -1.21751395750319   -3.55925059809408   -2.20620778842152
C        -0.46000457055725   -2.99925447649416   -1.19928752313254
H         0.53563861702084   -3.36317451327165   -0.98883557199589
H        -0.82688168606813   -4.36866231321704   -2.80110742491637
H        -3.92431481409842   -1.60976684319132   -1.80532167350590
C        -2.51387499653151   -0.39481275964832    0.22702757921035
N        -1.59703629796456    0.03715551406402    1.11961195611019
C        -1.92180572901373    1.04173338135057    1.93137392470406
C        -3.14517389589403    1.67949948778406    1.90528935977000
C        -4.09755185334202    1.25277837445098    0.98330162636877
C        -3.77501696767754    0.20860792942014    0.14378858704559
H        -4.50125792243086   -0.13808586835444   -0.57224271650301
H        -3.35324865264560    2.48665487861816    2.58874348482821
H        -1.14905876226267    1.34355078375544    2.62157406059316
Ir        0.42150000000008   -0.81649999999985    0.91330000000004
H         0.87260000000001   -2.23030000000013    1.54049999999999
B         0.45836534657635    0.61757754698232   -0.60386617298614
O        -0.24166543313572    0.39382283872652   -1.77593572932330
C        -0.26427148292543    1.58547140818343   -2.56882620421788
C        -0.09054269161742    1.22602912969976   -4.04216145427769
H         0.78347486274093    0.59944787998680   -4.18507917482958
H         0.00567080690834    2.12949208103786   -4.63871038009655
H        -0.96416799145231    0.67297152211823   -4.37927913717291
C        -1.64113142263191    2.23397854532477   -2.36485091991489
H        -1.74845831599652    3.12763044858268   -2.97248468047161
H        -2.40906668875509    1.51731717179371   -2.64950882928926
H        -1.78527665169120    2.48311430780493   -1.31531867155015
C         0.89886574289128    2.42764068917926   -1.94988033205020
O         1.00985314627637    1.87751087794674   -0.62973325260876
C         2.24131450311509    2.17325617956890   -2.64559475534130
H         2.44875672253129    1.10598894980905   -2.64002324878474
H         2.24262463377225    2.55847674197509   -3.66114190546883
H         3.02629946996982    2.66704309474556   -2.07747735012565
C         0.63962995151168    3.93061913654979   -1.87050745581609
H        -0.20051371956708    4.15158292885910   -1.21937083831326
H         1.52076743644038    4.42347692140677   -1.46623886016933
H         0.44269498049958    4.32684938320639   -2.86344998826321
B         1.54444192502914    0.65041913987681    1.89830362735844
O         2.90593256875463    0.81839409616954    1.89624538651920
C         3.25859193876472    2.07648350637806    2.48727327522937
C         4.49679822822798    1.90643562460375    3.36580815508679
H         4.35561280020523    1.12271470494093    4.10177438037358
H         5.34230875183873    1.62837544897779    2.74231069818736
H         4.72765608117302    2.83909249800646    3.87327376979575
C         3.58543245291348    3.02611509717019    1.32811905036811
H         3.82947004964188    4.02220577479314    1.68456192386475
H         4.43968685089256    2.62771468623002    0.78505623458223
H         2.73927315163586    3.05829141597330    0.64673331585441
C         1.95241278388700    2.47596334619804    3.25748089206595
O         0.95491162513018    1.64465299985160    2.64984076553098
C         1.54228864802710    3.94045249858453    3.11001652871681
H         1.33232734505661    4.17576003495050    2.07195808355536
H         0.63978653461892    4.11737762115024    3.69008992261016
H         2.32979623404169    4.58991868376125    3.48231515405326
C         1.99332934870006    2.11352457996191    4.74770381340101
H         2.21892240872637    1.05711953744924    4.86853083743946
H         2.72973195961475    2.70998285347376    5.27718050567281
H         1.01260279221965    2.29639443568508    5.18085626639815
B         2.27819999999959   -1.33090000000018    0.17409999999888
O         3.21060288348556   -2.09759529953131    0.84247907674162
C         4.44872409364068   -2.12669984238662    0.12123740645568
C         5.39455858456567   -1.14705551946367    0.82405631245006
H         4.91823135088607   -0.17248310721145    0.87939281154910
H         5.56347054024991   -1.49421968150557    1.84084005656965
H         6.35086315985306   -1.07988729368790    0.31497480994593
C         5.04258456366196   -3.53389135684597    0.18543961700278
H         5.29762562713248   -3.76027177131866    1.21736414082352
H         5.94464274050311   -3.58576810845185   -0.41759242324628
H         4.33294916892475   -4.28006580910313   -0.15616004501760
C         4.02324906557043   -1.65052849807084   -1.31225366939796
O         2.75423845045258   -1.01764354277288   -1.07848521108784
C         4.97492946618986   -0.64748059449928   -1.96150551347743
H         5.97116269410048   -1.07311839213560   -2.04352439275738
H         4.61443990448734   -0.40639706842765   -2.95848451547603
H         5.01377440513999    0.26948068041886   -1.38345308380931
C         3.77756195908542   -2.81022747071493   -2.28674917456571
H         3.08050108492452   -3.52353280617488   -1.85571752083499
H         3.33288175411713   -2.41207825975104   -3.19557359943960
H         4.70733355575381   -3.31168541311055   -2.53732056031636
H        -3.12082564774592   -3.45634461476238   -3.21223149807536
H        -5.06609056388593    1.72590002344341    0.92617935703571
C         0.23590000000047   -1.68139999999676    2.96030000000161
C        -0.97385185758908   -1.91999227938739    3.55357081857264
C         1.18542737496684   -1.70454986566831    4.02661500793869
N        -0.84449534417911   -2.04058564249493    4.92361010988403
H        -1.94559544027811   -2.01516653094814    3.10848026392833
C         2.56843759179648   -1.59990906532165    4.10587165318355
C         0.46388600302585   -1.91340857425859    5.24049907272877
H        -1.58985799040842   -2.19648221862716    5.58141134044945
C         3.10882111999317   -1.68698339888978    5.37478851552272
H         3.15750535108166   -1.45848063425928    3.21307275780413
N         1.00111794277017   -1.98799215406659    6.45276371119774
Br        5.00036232587501   -1.55711890651369    5.60798981137775
C         2.31408177295128   -1.87002026041066    6.50809257237011
H         2.75622963187662   -1.92868524463663    7.49289511330548
