129
 energy: -190.395647559519 gnorm: 0.000388184695 xtb: 6.4.1 (1a32961)
N        -0.81345946070711   -1.96912886093162   -0.51688037752504
C        -2.07987162066351   -1.53515954449257   -0.66978906114035
C        -2.90338234586969   -2.05978984522966   -1.67454112526219
C        -2.42382730272462   -3.03633475009105   -2.51889517262014
C        -1.11407663069990   -3.47708823714586   -2.34653298059894
C        -0.36010851647657   -2.91133928418803   -1.34018392976598
H         0.66300327743863   -3.21609877730037   -1.18065494869055
H        -0.69616275143988   -4.24220288896243   -2.98044124159705
H        -3.91257128979015   -1.70378594037351   -1.79878362278146
C        -2.53135035969523   -0.50500599534632    0.25620944072161
N        -1.62968978888770   -0.05946024187271    1.15522821231112
C        -2.01122609248723    0.86407258744105    2.03387528870078
C        -3.27895186573452    1.40720921151368    2.07290762110743
C        -4.21669090548402    0.96929505129640    1.14208604988919
C        -3.83557544942747    0.00695550019890    0.23312595470705
H        -4.55125923401855   -0.34913116580222   -0.48923329627509
H        -3.53092335904265    2.14945471194590    2.81306346546135
H        -1.25136881473031    1.17829656644259    2.73199701540990
Ir        0.42149999999984   -0.81649999999982    0.91329999999886
H         0.87260000000006   -2.23030000000025    1.54050000000014
B         0.46563869522716    0.72190322834869   -0.51144385180180
O        -0.51661559835476    0.77247239391911   -1.48775290349544
C        -0.51322504578748    2.05518669962883   -2.11903662442396
C        -0.79631407995023    1.90171702524972   -3.61154431829153
H        -0.12314008535638    1.18024484157890   -4.06331768183511
H        -0.69175141492049    2.86126903084667   -4.11139118215596
H        -1.81512661641988    1.54567823284105   -3.74568192644554
C        -1.64289127287213    2.86970214370221   -1.47118132249483
H        -1.73117854482689    3.85297634623968   -1.92355025148258
H        -2.58006557505672    2.33239581051065   -1.60533947269686
H        -1.46437487212093    2.96794066929767   -0.40210171746657
C         0.90776084678236    2.60645636146386   -1.76647380153849
O         1.25750108310679    1.84438368346943   -0.60343314986357
C         1.95355919274917    2.28380174951298   -2.84098730735005
H         1.95203263568058    1.21522776212201   -3.04272522870775
H         1.76525196858985    2.83906815855715   -3.75526840679636
H         2.93575557642485    2.55275130856278   -2.45859160554377
C         0.95657159048441    4.09896499039708   -1.44316564913809
H         0.37630298913668    4.32462610672272   -0.55357257880394
H         1.98784362176122    4.39154683542115   -1.26001502639674
H         0.57343580293059    4.67531787880418   -2.28141564615457
B         1.43133042155919    0.67808173961699    1.97725399072801
O         2.78663502313344    0.81086971812971    2.13577976426697
C         3.09951505434000    2.03084295967199    2.81827916333133
C         4.21481058819787    1.77570323621731    3.83061771966704
H         3.95133129454627    0.96850708029732    4.50544745879743
H         5.11651678590947    1.49176360456007    3.29470302392024
H         4.41583186458432    2.67863537903458    4.40060222640879
C         3.59152113232798    3.02013815338055    1.75494804816454
H         3.81125321797407    3.99249876556117    2.18544703711775
H         4.49627813280985    2.62066048429049    1.30367972956130
H         2.83887651415938    3.10880613565063    0.97580660493785
C         1.72158790409589    2.43778653269024    3.44382389504586
O         0.78432126204205    1.68695345250891    2.66036908565012
C         1.38446622063198    3.92473036175135    3.34798896967939
H         1.32693458465450    4.24109371058168    2.31166224688232
H         0.41775998647859    4.10172769150091    3.81323764978784
H         2.13565957702288    4.51297427855830    3.86782080482936
C         1.56097306106958    1.97556130801828    4.89830258704666
H         1.73646025634598    0.90571537170412    4.97233299052913
H         2.23921105933237    2.51015815926273    5.55597437773416
H         0.53857142456731    2.16779383014492    5.21561155031032
B         2.27819999999892   -1.33090000000152    0.17410000000234
O         3.42660778663390   -1.64870017267612    0.86912124042751
C         4.54102515625365   -1.71117801319081   -0.03188856941998
C         5.25250767842864   -0.35733405316358    0.05524796966997
H         4.55123927767395    0.43180208695389   -0.20328146302911
H         5.56244168414924   -0.20042249161140    1.08491147325083
H         6.12413720770814   -0.32322844833452   -0.59145949764234
C         5.49348459315011   -2.82261517130854    0.40267093893558
H         5.94902713705934   -2.54917539251285    1.35042669412439
H         6.27679622745001   -2.95263647910456   -0.33883839026965
H         4.96589774900744   -3.76040326875576    0.54155577325259
C         3.84398591193785   -1.93665855351213   -1.41562080353097
O         2.51731049735788   -1.44031750485896   -1.18062021130948
C         4.46886676288329   -1.17897672732824   -2.58493811134380
H         5.50971828487216   -1.46649345923609   -2.70548100938242
H         3.92844166620093   -1.42393684130034   -3.49606413997288
H         4.40150490499535   -0.10763631514878   -2.42893331234519
C         3.71819956755244   -3.42062690260613   -1.78693543814502
H         3.27205651452979   -3.97745739465149   -0.96678295797799
H         3.06707571028215   -3.50703204355554   -2.65386247000839
H         4.68762495803209   -3.84408016791492   -2.03110837203408
H        -3.05026792139235   -3.44777991760633   -3.29572268975415
H        -5.21960148286640    1.36898279406341    1.13290949543426
C         0.23589999999879   -1.68140000000640    2.96029999999804
C        -1.01988477040970   -1.98487760529206    3.45514816562520
C         1.28636163084829   -1.76461289172720    3.88445444441127
C        -1.23857472142773   -2.25507515401042    4.81402831254165
H        -1.87699269200277   -2.02581733051476    2.79807808049901
N         2.62667630181205   -1.64013652142118    3.67777318411137
C         1.09150252237460   -2.08512639994448    5.25385578958778
C        -0.20684699788319   -2.31009099993918    5.72016804932460
H        -2.25073541410507   -2.45003002226545    5.14273220595098
C         3.28009911784080   -1.86271457054205    4.84682848636283
H         3.03663544821950   -1.40466753680302    2.78227102666376
C         2.38710947410792   -2.13912881489704    5.84916864860879
H        -0.39519973598715   -2.54256427155332    6.75893104573604
H         4.35092280019846   -1.81802063987931    4.90011363790330
C         2.71619977053034   -2.55892347363680    7.24456865256705
C         3.16998177124951   -4.03490388665795    7.24809555195806
H         1.83840797703786   -2.45539103642675    7.88407483688351
H         3.52651830868022   -1.95597273469406    7.65574511426064
N         2.17923535256238   -4.86985581639633    6.61963804979424
C         3.44281824623690   -4.50117255379692    8.67333957640052
H         4.09746895256836   -4.13898911297288    6.67545224125289
C         2.50975189161186   -5.97985398436571    5.92901313558837
H         1.20459171844795   -4.68964863514640    6.80173966719760
O         2.70880786867922   -5.21206221857781    9.31733453893831
O         4.58928090268874   -4.00926908906469    9.12746116177800
O         3.65444327636386   -6.32982711725184    5.72016258613047
O         1.40064732645793   -6.60209802171324    5.50480182233704
C         4.96825801170066   -4.35770710719479   10.46161323933534
C         1.46986715709017   -7.79868382696559    4.67976974556465
H         5.94000334579672   -3.89907519544098   10.62022190072915
H         5.02795918455250   -5.44248793938007   10.56225952734525
H         4.23427177982254   -3.97405342910259   11.17193855896271
C         2.17046418741149   -8.92796625781150    5.43557430518212
C         0.00275971609805   -8.15189901764069    4.42782606687753
C         2.18102665231822   -7.49424656515900    3.36121437871043
H         1.68184906875987   -9.09584693127677    6.39291839093920
H         3.21120551430540   -8.67180509981221    5.61518923792683
H         2.12609216535544   -9.84080159028257    4.84893115739902
H        -0.50060598155614   -8.34248965404879    5.37170405208760
H        -0.06083981473262   -9.03732242543170    3.80320637993707
H        -0.49627613435108   -7.32476364360946    3.93051880594491
H         3.21457406965428   -7.21543739755846    3.54794305954745
H         1.68271764090912   -6.67399492079128    2.85006142533883
H         2.16127105241263   -8.37527870982790    2.72652354527098
