125
 energy: -176.303154487030 gnorm: 0.004384055587 xtb: 6.4.1 (1a32961)
N        -0.96509999999999   -2.11529999999997   -0.24089999999984
C        -2.24699999999978   -1.69840000000020   -0.36219999999995
C        -3.14040000000004   -2.36820000000021   -1.21199999999996
C        -2.70220000000005   -3.47559999999962   -1.93049999999987
C        -1.37779999999999   -3.89880000000006   -1.78759999999999
C        -0.54290000000000   -3.18670000000003   -0.93509999999980
H         0.49809999999998   -3.45629999999999   -0.78940000000001
H        -0.99569999999996   -4.76030000000000   -2.32769999999998
H        -4.16499999999998   -2.02889999999993   -1.31830000000000
C        -2.62130000000212   -0.50950000000015    0.44099999999973
N        -1.62600000000006    0.07330000000023    1.16019999999970
C        -1.89680000000009    1.15239999999983    1.91690000000024
C        -3.17229999999999    1.70329999999989    1.99650000000028
C        -4.20510000000004    1.11739999999998    1.26269999999984
C        -3.92610000000020    0.00249999999994    0.47820000000006
H        -4.71960000000001   -0.46419999999998   -0.09519999999993
H        -3.34630000000001    2.57509999999998    2.62070000000011
H        -1.04450000000000    1.57420000000004    2.43689999999995
Ir        0.42150000000001   -0.81650000000000    0.91329999999999
H         0.87260000000000   -2.23030000000000    1.54050000000000
B         0.50670000000001    0.41560000000003   -0.81540000000000
O         0.19500000000003   -0.04699999999999   -2.09150000000001
C         0.00649999999997    1.10040000000001   -2.95429999999997
C         0.49020000000001    0.74740000000025   -4.35780000000003
H         1.51609999999989    0.37380000000003   -4.33699999999999
H         0.44730000000001    1.62239999999979   -5.01669999999995
H        -0.14740000000002   -0.03390000000003   -4.78430000000000
C        -1.50120000000000    1.39560000000003   -2.96669999999998
H        -1.75369999999994    2.21459999999999   -3.64850000000002
H        -2.03199999999996    0.49449999999998   -3.28930000000003
H        -1.85170000000000    1.65210000000001   -1.96220000000000
C         0.84229999999997    2.20669999999987   -2.22040000000001
O         0.75200000000003    1.78260000000002   -0.83689999999997
C         2.32930000000003    2.18620000000004   -2.59900000000001
H         2.74130000000003    1.18500000000003   -2.45749999999998
H         2.48870000000006    2.51300000000002   -3.63180000000000
H         2.87200000000003    2.86270000000001   -1.93199999999999
C         0.28439999999972    3.62290000000002   -2.33659999999995
H        -0.72649999999983    3.69040000000002   -1.92910000000000
H         0.92129999999994    4.31480000000002   -1.77609999999995
H         0.26430000000005    3.94810000000001   -3.38319999999990
B         1.56300000000001    0.60959999999999    1.84840000000001
O         2.92780000000001    0.55230000000000    2.15020000000000
C         3.36330000000001    1.88659999999999    2.50259999999984
C         4.53140000000000    1.78590000000000    3.47739999999999
H         4.27909999999999    1.16089999999997    4.33689999999999
H         5.39390000000000    1.33790000000000    2.97340000000004
H         4.82389999999999    2.77869999999999    3.83820000000002
C         3.79700000000001    2.56849999999998    1.19669999999995
H         4.20020000000002    3.57089999999999    1.37680000000005
H         4.56740000000001    1.95559999999999    0.72110000000003
H         2.95240000000002    2.63260000000001    0.50540000000000
C         2.05040000000002    2.50089999999999    3.09320000000000
O         1.03750000000003    1.81619999999998    2.31910000000004
C         1.89100000000005    4.00450000000002    2.88650000000005
H         1.87290000000001    4.25440000000000    1.82410000000003
H         0.94939999999997    4.34260000000000    3.33169999999999
H         2.71079999999998    4.55149999999999    3.36629999999999
C         1.82470000000003    2.13199999999999    4.56519999999998
H         1.92609999999998    1.05329999999995    4.71320000000000
H         2.52610000000001    2.65279999999999    5.22540000000004
H         0.80630000000004    2.41579999999997    4.84899999999996
B         2.27820000000004   -1.33089999999998    0.17410000000001
O         2.89459999999999   -2.57739999999999    0.38450000000000
C         4.26929999999999   -2.48199999999999   -0.07209999999999
C         5.10900000000000   -2.05380000000000    1.14009999999996
H         4.76350000000000   -1.08740000000000    1.51750000000001
H         4.98049999999999   -2.79469999999998    1.93589999999997
H         6.17419999999999   -1.99290000000000    0.89300000000005
C         4.71950000000001   -3.84659999999997   -0.58469999999999
H         4.75280000000001   -4.56129999999998    0.24420000000000
H         5.72330000000001   -3.78370000000002   -1.02009999999994
H         4.03500000000002   -4.23599999999999   -1.34170000000000
C         4.16439999999996   -1.36219999999998   -1.16300000000002
O         3.08520000000013   -0.55030000000001   -0.65400000000011
C         5.40720000000002   -0.48869999999999   -1.31549999999998
H         6.27320000000004   -1.09009999999998   -1.61529999999993
H         5.23300000000004    0.26929999999999   -2.08589999999996
H         5.64270000000003    0.02650000000004   -0.38240000000000
C         3.71800000000001   -1.89830000000002   -2.53110000000005
H         2.82529999999994   -2.52159999999999   -2.42740000000000
H         3.46090000000005   -1.05249999999999   -3.17550000000000
H         4.50570000000001   -2.48290000000000   -3.01790000000000
H        -3.38499999999989   -4.00129999999999   -2.59310000000004
H        -5.21400000000000    1.52079999999990    1.29959999999996
C         0.23590000000010   -1.68140000000004    2.96029999999997
C        -1.07783277643857   -1.71961741385907    3.47026654378496
C         1.19053249442133   -1.94752412515337    3.99908853453556
C        -1.34586438871583   -1.49006895097477    4.82944269456915
C        -2.28664098650788   -2.28280290129525    2.76408238542608
C         0.81081399363840   -2.18435077125324    5.34701700960708
C         2.59477194789020   -2.32367059779830    4.03760318668153
C        -0.41436264123414   -1.73732831785122    5.82106327221728
H        -2.36394155763814   -1.25774343625639    5.11986552029254
C        -2.68389090889082   -3.59067932116865    3.44909111626981
H        -2.05454562007772   -2.52077442765091    1.72949669179922
H        -3.13342014938595   -1.59019119516312    2.80487721508213
N         1.71465920621057   -3.00203838434554    6.02984802046684
C         3.77972170304438   -1.78370350577536    3.55843018651748
C         2.78093485602383   -3.16179391608363    5.15216418178408
H        -0.64501484051177   -1.69910798029704    6.87612191808537
H        -1.85022781441547   -4.29302147892934    3.42909208801601
H        -3.53513672911704   -4.04444305564977    2.93849386354476
H        -2.95642288638601   -3.42840162605669    4.49254739743790
O         2.12010001021738   -2.75080558787674    7.36529176451072
C         5.00882684464698   -2.30472363790024    3.95353192532198
H         3.69514805275443   -0.91198363264859    2.93761195966271
C         3.94597550790846   -3.88496642751281    5.37928860067141
Si        3.60579807226188   -2.17195621753802    7.88753133077054
C         5.08589269961535   -3.46013713762820    4.71292114894938
H         5.92118942365928   -1.81984176502024    3.63137381992486
H         3.96876096017513   -4.67556290917646    6.10891509001146
C         5.07375720356187   -3.37815208304355    8.10497989027209
C         4.25869833050577   -0.69014137032331    6.90838538065147
C         3.18949750811807   -1.66613445481727    9.67087723231616
H         6.03448622087942   -3.95955165588447    4.86450971314583
H         4.76496099670288   -4.40474552884496    8.28735637293530
H         5.66377396319217   -3.06940269389477    8.96759224035507
H         5.74831507428242   -3.38308670598506    7.25095894287900
H         3.58284670375588    0.16117273546355    6.95141397636107
H         4.40697688378008   -0.93670879218554    5.85765448353751
H         5.22339811477180   -0.36355610444771    7.29546249601056
H         2.93014095236003   -2.52939490027740   10.27847690734447
H         2.37881908507274   -0.94660411823865    9.73736816892766
H         4.07682774877484   -1.21161288644409   10.11016632310601
