105
 energy: -149.474935183548 gnorm: 0.006640361906 xtb: 6.4.0 (f63f532)
N        -0.96510000000001   -2.11530000000002   -0.24089999999998
C        -2.24699999999997   -1.69840000000002   -0.36220000000000
C        -3.14039999999999   -2.36820000000002   -1.21200000000001
C        -2.70219999999998   -3.47559999999998   -1.93050000000003
C        -1.37779999999998   -3.89880000000013   -1.78760000000001
C        -0.54290000000001   -3.18669999999994   -0.93509999999994
H         0.49810000000000   -3.45630000000000   -0.78940000000000
H        -0.99569999999999   -4.76030000000004   -2.32770000000000
H        -4.16499999999999   -2.02889999999999   -1.31830000000000
C        -2.62130000000000   -0.50950000000000    0.44100000000000
N        -1.62600000000000    0.07329999999999    1.16020000000001
C        -1.89680000000000    1.15240000000002    1.91690000000000
C        -3.17229999999999    1.70330000000000    1.99650000000000
C        -4.20510000000000    1.11740000000002    1.26270000000003
C        -3.92610000000000    0.00250000000000    0.47820000000001
H        -4.71960000000000   -0.46420000000000   -0.09519999999999
H        -3.34630000000000    2.57509999999999    2.62069999999998
H        -1.04449999999999    1.57420000000001    2.43689999999999
Ir        0.42150000000000   -0.81650000000000    0.91330000000000
H         0.87260000000000   -2.23030000000000    1.54050000000000
B         0.50670000000000    0.41560000000001   -0.81539999999999
O         0.19500000000000   -0.04700000000005   -2.09150000000000
C         0.00649999999999    1.10040000000000   -2.95430000000003
C         0.49020000000002    0.74740000000003   -4.35779999999998
H         1.51610000000002    0.37380000000002   -4.33700000000000
H         0.44730000000000    1.62239999999998   -5.01670000000001
H        -0.14739999999999   -0.03389999999998   -4.78429999999996
C        -1.50120000000005    1.39559999999993   -2.96670000000003
H        -1.75370000000001    2.21460000000003   -3.64850000000002
H        -2.03199999999997    0.49449999999998   -3.28930000000003
H        -1.85170000000000    1.65210000000000   -1.96220000000003
C         0.84230000000001    2.20670000000001   -2.22040000000006
O         0.75200000000000    1.78260000000000   -0.83689999999996
C         2.32929999999998    2.18620000000001   -2.59899999999997
H         2.74129999999998    1.18500000000001   -2.45750000000000
H         2.48870000000000    2.51300000000000   -3.63180000000001
H         2.87199999999998    2.86270000000000   -1.93200000000003
C         0.28440000000001    3.62289999999998   -2.33659999999998
H        -0.72650000000000    3.69040000000000   -1.92910000000001
H         0.92130000000001    4.31479999999998   -1.77609999999997
H         0.26430000000000    3.94810000000002   -3.38319999999995
B         1.56299999999999    0.60960000000001    1.84840000000000
O         2.92780000000001    0.55230000000001    2.15020000000000
C         3.36329999999998    1.88659999999997    2.50260000000001
C         4.53140000000002    1.78589999999994    3.47739999999997
H         4.27910000000000    1.16090000000001    4.33689999999997
H         5.39389999999999    1.33790000000002    2.97340000000001
H         4.82390000000000    2.77870000000000    3.83820000000002
C         3.79699999999998    2.56849999999998    1.19669999999997
H         4.20020000000000    3.57090000000001    1.37680000000000
H         4.56740000000000    1.95560000000000    0.72110000000001
H         2.95240000000001    2.63260000000000    0.50540000000000
C         2.05040000000000    2.50089999999999    3.09319999999999
O         1.03750000000002    1.81619999999999    2.31910000000002
C         1.89100000000000    4.00450000000000    2.88649999999997
H         1.87290000000000    4.25440000000000    1.82410000000003
H         0.94939999999999    4.34260000000000    3.33170000000001
H         2.71080000000001    4.55150000000001    3.36629999999999
C         1.82470000000001    2.13200000000005    4.56519999999996
H         1.92610000000000    1.05329999999999    4.71319999999999
H         2.52610000000000    2.65279999999998    5.22540000000002
H         0.80629999999997    2.41580000000000    4.84900000000001
B         2.27820000000000   -1.33089999999999    0.17410000000001
O         2.89460000000000   -2.57740000000000    0.38450000000002
C         4.26930000000000   -2.48200000000001   -0.07209999999996
C         5.10900000000002   -2.05379999999997    1.14009999999995
H         4.76349999999999   -1.08739999999999    1.51750000000002
H         4.98050000000000   -2.79470000000000    1.93589999999998
H         6.17419999999999   -1.99290000000000    0.89299999999999
C         4.71949999999997   -3.84660000000004   -0.58469999999997
H         4.75280000000000   -4.56130000000004    0.24419999999998
H         5.72330000000000   -3.78370000000000   -1.02010000000004
H         4.03499999999994   -4.23599999999999   -1.34169999999999
C         4.16439999999999   -1.36220000000003   -1.16300000000003
O         3.08520000000000   -0.55030000000002   -0.65400000000001
C         5.40720000000003   -0.48869999999998   -1.31550000000000
H         6.27320000000000   -1.09009999999999   -1.61530000000001
H         5.23300000000000    0.26930000000000   -2.08590000000000
H         5.64270000000000    0.02650000000000   -0.38240000000000
C         3.71799999999996   -1.89830000000004   -2.53110000000003
H         2.82529999999996   -2.52159999999997   -2.42739999999999
H         3.46089999999999   -1.05250000000003   -3.17550000000000
H         4.50570000000001   -2.48289999999998   -3.01790000000001
H        -3.38499999999997   -4.00130000000002   -2.59310000000006
H        -5.21400000000000    1.52080000000000    1.29959999999999
C         0.23589999999998   -1.68140000000000    2.96030000000000
C        -0.99332692700570   -2.18881528089507    3.39251223679945
C         1.27028435702052   -1.92694137308760    3.89488649364940
C        -1.16086805268873   -2.78948535109508    4.63298023862522
H        -1.84442654994292   -2.17247802540658    2.72369557642146
Br        3.08002306478112   -1.77545124239893    3.36070358941719
C         1.15443642864759   -2.47260958089258    5.18601216862118
C        -0.11623835093177   -2.91677427995283    5.54021020894695
H        -2.12268804091951   -3.21812419277720    4.88736026125832
C         2.37696628456057   -2.63849155444085    6.08336043017281
H        -0.26597192244891   -3.41783268441619    6.48729027689351
C         2.77491521423231   -1.29446310056303    6.70280718291499
C         2.31669236734195   -3.71465174131383    7.16981691118159
H         3.20733456508150   -2.95472435472722    5.44577957178577
H         2.04136246662422   -0.97350389832826    7.44309703791185
H         2.85756127858954   -0.52466419991514    5.93618537221122
H         3.74747104856826   -1.38136193885955    7.18875191866883
H         1.58970122837196   -3.49164304784318    7.94900580142447
H         3.30413639541624   -3.76649849575260    7.63402996492281
H         2.10279052123949   -4.68988204768113    6.73268848684941
