105
 energy: -155.454120191772 gnorm: 0.003376188876 xtb: 6.4.1 (1a32961)
N        -0.96510000000000   -2.11530000000000   -0.24090000000001
C        -2.24700000000001   -1.69840000000001   -0.36219999999999
C        -3.14039999999999   -2.36820000000002   -1.21200000000001
C        -2.70220000000002   -3.47560000000001   -1.93049999999999
C        -1.37780000000000   -3.89880000000000   -1.78760000000002
C        -0.54290000000002   -3.18670000000000   -0.93510000000002
H         0.49810000000000   -3.45630000000000   -0.78940000000000
H        -0.99570000000000   -4.76030000000000   -2.32770000000000
H        -4.16500000000001   -2.02890000000000   -1.31830000000000
C        -2.62129999999999   -0.50950000000000    0.44100000000001
N        -1.62600000000000    0.07330000000000    1.16019999999999
C        -1.89680000000000    1.15240000000001    1.91690000000000
C        -3.17230000000001    1.70329999999999    1.99650000000000
C        -4.20510000000000    1.11739999999999    1.26270000000001
C        -3.92610000000001    0.00250000000000    0.47820000000001
H        -4.71960000000000   -0.46420000000000   -0.09520000000000
H        -3.34630000000000    2.57510000000000    2.62070000000000
H        -1.04450000000000    1.57420000000000    2.43690000000000
Ir        0.42150000000000   -0.81650000000000    0.91330000000000
H         0.87260000000000   -2.23030000000000    1.54050000000000
B         0.50670000000000    0.41559999999999   -0.81540000000000
O         0.19500000000000   -0.04700000000000   -2.09150000000000
C         0.00649999999999    1.10040000000000   -2.95429999999999
C         0.49020000000003    0.74740000000002   -4.35780000000000
H         1.51610000000000    0.37380000000000   -4.33700000000000
H         0.44730000000000    1.62240000000001   -5.01670000000000
H        -0.14740000000000   -0.03390000000001   -4.78430000000000
C        -1.50120000000000    1.39560000000001   -2.96669999999999
H        -1.75369999999999    2.21460000000002   -3.64850000000000
H        -2.03200000000000    0.49450000000000   -3.28930000000000
H        -1.85170000000000    1.65210000000000   -1.96220000000000
C         0.84230000000000    2.20670000000000   -2.22040000000003
O         0.75200000000000    1.78260000000000   -0.83690000000000
C         2.32930000000000    2.18620000000000   -2.59900000000003
H         2.74130000000000    1.18500000000001   -2.45750000000000
H         2.48870000000000    2.51300000000000   -3.63180000000000
H         2.87200000000000    2.86270000000001   -1.93199999999999
C         0.28440000000002    3.62290000000001   -2.33660000000000
H        -0.72650000000001    3.69040000000000   -1.92910000000000
H         0.92130000000000    4.31479999999999   -1.77610000000000
H         0.26430000000000    3.94810000000000   -3.38320000000001
B         1.56300000000001    0.60960000000000    1.84840000000000
O         2.92780000000000    0.55230000000000    2.15020000000000
C         3.36330000000001    1.88659999999999    2.50260000000001
C         4.53140000000001    1.78589999999997    3.47740000000000
H         4.27910000000000    1.16090000000000    4.33689999999999
H         5.39389999999999    1.33790000000000    2.97340000000001
H         4.82390000000000    2.77870000000000    3.83820000000000
C         3.79700000000000    2.56849999999999    1.19670000000001
H         4.20020000000000    3.57090000000000    1.37680000000000
H         4.56740000000000    1.95559999999999    0.72110000000000
H         2.95240000000000    2.63260000000000    0.50539999999999
C         2.05040000000000    2.50089999999998    3.09319999999998
O         1.03749999999999    1.81620000000000    2.31910000000000
C         1.89099999999999    4.00449999999999    2.88650000000001
H         1.87290000000000    4.25440000000000    1.82410000000001
H         0.94940000000000    4.34260000000000    3.33170000000001
H         2.71079999999999    4.55150000000001    3.36630000000001
C         1.82470000000002    2.13200000000002    4.56520000000004
H         1.92610000000000    1.05330000000000    4.71320000000000
H         2.52610000000001    2.65279999999999    5.22540000000000
H         0.80629999999999    2.41580000000000    4.84900000000000
B         2.27820000000000   -1.33090000000000    0.17410000000000
O         2.89460000000000   -2.57740000000000    0.38450000000000
C         4.26930000000000   -2.48200000000000   -0.07210000000001
C         5.10900000000000   -2.05380000000000    1.14010000000000
H         4.76350000000000   -1.08740000000000    1.51750000000000
H         4.98050000000000   -2.79470000000000    1.93590000000001
H         6.17420000000000   -1.99290000000000    0.89300000000000
C         4.71950000000000   -3.84659999999999   -0.58470000000000
H         4.75280000000000   -4.56130000000000    0.24420000000000
H         5.72330000000001   -3.78370000000000   -1.02010000000000
H         4.03500000000000   -4.23600000000000   -1.34170000000000
C         4.16440000000001   -1.36220000000000   -1.16299999999999
O         3.08520000000001   -0.55030000000000   -0.65400000000001
C         5.40720000000000   -0.48869999999999   -1.31550000000001
H         6.27320000000000   -1.09010000000001   -1.61529999999999
H         5.23300000000000    0.26930000000000   -2.08590000000000
H         5.64270000000000    0.02650000000000   -0.38240000000001
C         3.71800000000000   -1.89830000000001   -2.53110000000001
H         2.82530000000000   -2.52160000000000   -2.42740000000000
H         3.46090000000000   -1.05250000000003   -3.17550000000000
H         4.50570000000000   -2.48290000000000   -3.01790000000000
H        -3.38500000000001   -4.00129999999999   -2.59310000000000
H        -5.21400000000000    1.52079999999999    1.29960000000000
C         0.23590000000000   -1.68139999999999    2.96029999999998
C        -0.99498842439895   -2.14945002442413    3.43416234619378
C         1.33016089495840   -1.73980857412786    3.86012762513589
C        -1.09626454971848   -2.57487705203817    4.75332691407657
H        -1.84614374079266   -2.25229013097613    2.77635838793964
C         1.18016592283644   -1.94634337845090    5.22858716611463
O         2.61001517475359   -1.64780173314873    3.37970942572604
C        -0.04492779636263   -2.42736320684680    5.66220860622346
O        -2.08316380844382   -3.26790033361842    5.40678111129522
H         2.00802467878448   -1.87547898929676    5.91892365886689
C         3.52634531041020   -2.61955485106432    3.86475325820349
N        -0.38895209942324   -3.01791165349355    6.85346577006074
C        -1.56834118876318   -3.51699830579100    6.64884975893255
H         4.50882344090260   -2.14693448835221    3.89351234989666
H         3.53163117278355   -3.47313460966996    3.17857333328218
H         3.28264636900104   -2.99118522754739    4.86188740624043
C        -2.29758264172216   -4.36225813988611    7.61748866509951
H        -1.58984590660855   -5.06251457618468    8.06273850043646
H        -3.09800700858002   -4.90344578732841    7.11637561582471
H        -2.71122905212706   -3.75084668101951    8.42000773318988
