106
 energy: -152.431372842368 gnorm: 0.000301284484 xtb: 6.4.1 (1a32961)
N        -0.92239424882342   -2.04009298115285   -0.35214326001607
C        -2.19356326288456   -1.61268947786088   -0.47642777847262
C        -3.07884793595605   -2.23888019866383   -1.36454827127683
C        -2.64633495981806   -3.29469589027009   -2.13543468444474
C        -1.32525890795545   -3.71763143172392   -2.00442213198764
C        -0.51589849788606   -3.06061216203729   -1.10214495071334
H         0.51343577285531   -3.35833459435509   -0.96081985567042
H        -0.94251427791256   -4.53870514645300   -2.58842727841219
H        -4.09818378330990   -1.90074244608239   -1.45386256177791
C        -2.57611016973260   -0.47074731897137    0.34298804788244
N        -1.61979474497075    0.04328014400325    1.14569242739057
C        -1.92228323511001    1.08878385682111    1.91115676903211
C        -3.16716361674226    1.68302285118017    1.93379348962593
C        -4.16415545802415    1.16887643767726    1.10727965969962
C        -3.86035058611431    0.08940077535032    0.30675831963585
H        -4.61917679024062   -0.31937475317312   -0.33980742453716
H        -3.36039472545715    2.51972293488473    2.58557839201534
H        -1.11580249324819    1.45277278902181    2.52856691159025
Ir        0.42149999999994   -0.81650000000002    0.91330000000005
H         0.87260000000004   -2.23030000000003    1.54050000000003
B         0.30208486629615    0.64006792491571   -0.58088297719309
O        -0.35747822413172    0.34618220584422   -1.76187244255692
C        -0.56618990334325    1.54317881065611   -2.51809603001904
C        -0.35338068699063    1.26015772959121   -4.00292673603449
H         0.59841880435530    0.76597527050225   -4.16688325501331
H        -0.38724841894831    2.18787061164249   -4.56843195585636
H        -1.14347180551537    0.60293624929601   -4.35873587652927
C        -2.02281712633733    1.97339818020106   -2.29003022819900
H        -2.27174443624972    2.84830636401881   -2.88340203681498
H        -2.67729179558115    1.15227454746624   -2.57651808129260
H        -2.19124336064733    2.18581927146919   -1.23598959167681
C         0.46088908358927    2.53201569727740   -1.87722164675879
O         0.65319706970384    1.97246105970893   -0.57135133386464
C         1.82347950506336    2.49499207206716   -2.58031538465024
H         2.18802346793464    1.47052375858444   -2.59607822538310
H         1.76031677017827    2.89427206338377   -3.58851950711746
H         2.52954391144953    3.09060738055631   -2.00664365370223
C        -0.01753498079648    3.97810097789339   -1.76332396016511
H        -0.87989295250956    4.05801779099572   -1.10843013081383
H         0.78154162501321    4.58682132688547   -1.34695385509586
H        -0.27353176145777    4.36328655351531   -2.74715191441931
B         1.53781441915413    0.69604875263469    1.82391839766920
O         2.87469697461329    0.99672670046961    1.67864781742696
C         3.17737972720622    2.25153449772347    2.30477381298667
C         4.51995217119528    2.15381164121569    3.02938428224925
H         4.53682452997171    1.31176062512876    3.71308585256606
H         5.30909705256947    2.01008121162791    2.29573191696328
H         4.71598355804485    3.07152820523715    3.57716305026248
C         3.28151871555610    3.28801241081381    1.18015238288431
H         3.48317482019592    4.28159545488704    1.56907467041431
H         4.09141213873116    2.99569501257001    0.51560694110171
H         2.35883543299996    3.28054875168695    0.60633487856836
C         1.93943875292091    2.48264451745630    3.23953712357943
O         0.95887927960507    1.58962443835623    2.69653644160974
C         1.38078871233993    3.90510951515507    3.22568423307061
H         1.02960559088325    4.16997187570473    2.23385388831337
H         0.53888981513245    3.96068709235303    3.91166051302231
H         2.14080769506928    4.61198081067108    3.54718281383619
C         2.18451891406769    2.05628509260849    4.69269555713590
H         2.53056879408394    1.02816108812641    4.72881566935542
H         2.90543388253625    2.70961960818396    5.17447186836243
H         1.24224801669722    2.10903551346963    5.23304593548651
B         2.27819999999885   -1.33090000000052    0.17409999999992
O         3.18745207240612   -2.23400815437241    0.68083550429150
C         4.43205010257586   -2.12853257401033   -0.02343752967504
C         5.36053927428836   -1.28619508942355    0.85782179565055
H         4.88383939757050   -0.33095740507133    1.05883241653981
H         5.49654892459040   -1.80092712251421    1.80537271492845
H         6.32916801100435   -1.14115157059689    0.38997423936661
C         5.03345590000222   -3.52023722707961   -0.21406403693273
H         5.29049398952409   -3.92916516247675    0.75933671927659
H         5.93431617689441   -3.45717459289260   -0.81795397697173
H         4.32683139187774   -4.19417431678438   -0.68679164125821
C         4.02065906449951   -1.39630060760388   -1.34820148220413
O         2.76046727856118   -0.80383262327907   -1.00334428384427
C         4.98219248673363   -0.29817091815928   -1.79968945168883
H         5.97751515022510   -0.70531366428044   -1.95467006003874
H         4.62540833950070    0.12337306762816   -2.73611544935852
H         5.01820016906075    0.49693919947790   -1.06316517226239
C         3.76878606225579   -2.35669892059468   -2.51868987940637
H         3.06330217156794   -3.12950104398644   -2.22636334415847
H         3.32879905156737   -1.79525634971053   -3.33941188057092
H         4.69460914527185   -2.81169674933109   -2.85732712932593
H        -3.31754857167696   -3.78130926193656   -2.82683717552834
H        -5.15345259864054    1.60121768881203    1.09557842800978
C         0.23590000000061   -1.68139999999872    2.96030000000307
C        -1.09733272536019   -1.92810072229731    3.25938823248558
C         1.16416367283806   -1.68299808349416    4.01038089679003
C        -1.56611029094013   -1.99711047267330    4.57223598047123
H        -1.81409782121427   -2.10172813056651    2.46948814398181
C         2.64011744028570   -1.69027205856427    3.76056892117628
C         0.69759972193693   -1.75251431125937    5.31836997012225
C        -2.98878007064822   -2.20183598135898    4.83630757623369
C        -0.64769998899800   -1.87714603768834    5.60976825866734
H         2.92768755927220   -0.86367886504993    3.11940695062888
H         2.91163648144531   -2.59790891251777    3.22487530414916
H         3.19336599251447   -1.65191770766843    4.69668129050453
H         1.40812377962304   -1.72163062234073    6.13338889246383
C        -3.99294442516100   -1.76562931161406    4.02057885429682
C        -3.51028623872289   -2.88454356529954    5.97455117055790
H        -0.97888716624372   -1.89811767979792    6.63763470313278
S        -5.55565291294945   -2.16640109972101    4.61381328615619
H        -3.91118618359088   -1.20246288935047    3.11226531898248
C        -4.86193021215315   -2.94591905821503    5.98530079440883
H        -2.89094475635704   -3.32621688647823    6.73413242262651
H        -5.50585552832422   -3.40243038771119    6.71029345940778
