107
 energy: -152.621321897516 gnorm: 0.001932529449 xtb: 6.4.1 (1a32961)
N        -0.96510000000001   -2.11530000000000   -0.24090000000000
C        -2.24700000000000   -1.69839999999999   -0.36219999999999
C        -3.14039999999998   -2.36820000000003   -1.21199999999999
C        -2.70219999999998   -3.47560000000002   -1.93049999999995
C        -1.37780000000000   -3.89880000000000   -1.78759999999992
C        -0.54289999999999   -3.18670000000003   -0.93510000000002
H         0.49810000000000   -3.45630000000000   -0.78940000000000
H        -0.99570000000000   -4.76029999999998   -2.32769999999999
H        -4.16500000000000   -2.02890000000000   -1.31830000000000
C        -2.62130000000001   -0.50949999999999    0.44100000000000
N        -1.62600000000000    0.07330000000000    1.16020000000000
C        -1.89680000000000    1.15240000000000    1.91690000000000
C        -3.17230000000000    1.70330000000001    1.99650000000000
C        -4.20510000000000    1.11740000000000    1.26269999999999
C        -3.92610000000000    0.00249999999999    0.47820000000000
H        -4.71960000000001   -0.46420000000000   -0.09520000000001
H        -3.34630000000000    2.57510000000000    2.62070000000000
H        -1.04450000000000    1.57420000000000    2.43690000000000
Ir        0.42150000000000   -0.81650000000000    0.91330000000000
H         0.87260000000000   -2.23030000000000    1.54050000000000
B         0.50670000000000    0.41559999999999   -0.81540000000000
O         0.19500000000000   -0.04700000000002   -2.09150000000000
C         0.00649999999999    1.10040000000002   -2.95430000000002
C         0.49019999999996    0.74740000000001   -4.35779999999999
H         1.51610000000000    0.37379999999999   -4.33700000000000
H         0.44730000000000    1.62239999999999   -5.01670000000000
H        -0.14739999999999   -0.03390000000000   -4.78429999999999
C        -1.50119999999999    1.39559999999996   -2.96669999999999
H        -1.75370000000000    2.21460000000001   -3.64850000000000
H        -2.03200000000001    0.49450000000000   -3.28930000000000
H        -1.85170000000000    1.65210000000000   -1.96220000000000
C         0.84229999999999    2.20670000000000   -2.22040000000000
O         0.75200000000000    1.78260000000003   -0.83689999999999
C         2.32930000000001    2.18620000000003   -2.59900000000001
H         2.74130000000000    1.18500000000003   -2.45750000000000
H         2.48870000000000    2.51300000000000   -3.63179999999998
H         2.87199999999999    2.86270000000000   -1.93199999999999
C         0.28439999999999    3.62289999999998   -2.33659999999997
H        -0.72650000000000    3.69040000000000   -1.92910000000000
H         0.92130000000000    4.31480000000001   -1.77610000000000
H         0.26430000000000    3.94810000000000   -3.38319999999998
B         1.56300000000000    0.60959999999999    1.84840000000000
O         2.92780000000000    0.55229999999999    2.15020000000000
C         3.36329999999999    1.88659999999999    2.50259999999996
C         4.53140000000000    1.78590000000001    3.47740000000002
H         4.27910000000000    1.16089999999999    4.33689999999998
H         5.39390000000001    1.33790000000001    2.97339999999999
H         4.82390000000000    2.77869999999999    3.83820000000000
C         3.79700000000000    2.56850000000000    1.19670000000005
H         4.20020000000000    3.57090000000000    1.37680000000000
H         4.56740000000000    1.95559999999999    0.72110000000000
H         2.95240000000002    2.63260000000000    0.50540000000000
C         2.05039999999999    2.50089999999997    3.09320000000001
O         1.03750000000000    1.81620000000001    2.31909999999999
C         1.89099999999999    4.00449999999996    2.88650000000001
H         1.87290000000000    4.25439999999999    1.82409999999999
H         0.94940000000000    4.34260000000001    3.33169999999999
H         2.71080000000000    4.55149999999999    3.36630000000000
C         1.82469999999999    2.13199999999996    4.56520000000003
H         1.92610000000000    1.05329999999999    4.71320000000001
H         2.52610000000000    2.65280000000001    5.22540000000002
H         0.80629999999999    2.41579999999999    4.84900000000000
B         2.27820000000000   -1.33090000000000    0.17410000000000
O         2.89460000000000   -2.57740000000000    0.38450000000000
C         4.26930000000000   -2.48199999999999   -0.07210000000000
C         5.10900000000000   -2.05380000000000    1.14009999999999
H         4.76350000000000   -1.08740000000000    1.51750000000000
H         4.98050000000000   -2.79470000000000    1.93590000000001
H         6.17420000000000   -1.99290000000000    0.89300000000000
C         4.71950000000000   -3.84660000000000   -0.58470000000002
H         4.75280000000000   -4.56130000000001    0.24419999999998
H         5.72330000000001   -3.78370000000000   -1.02010000000001
H         4.03500000000001   -4.23600000000000   -1.34170000000000
C         4.16440000000001   -1.36220000000000   -1.16300000000000
O         3.08520000000001   -0.55030000000000   -0.65400000000001
C         5.40719999999999   -0.48870000000000   -1.31550000000001
H         6.27320000000000   -1.09010000000000   -1.61530000000000
H         5.23300000000000    0.26930000000000   -2.08590000000001
H         5.64270000000000    0.02650000000000   -0.38239999999999
C         3.71800000000001   -1.89829999999998   -2.53109999999998
H         2.82530000000000   -2.52160000000000   -2.42740000000000
H         3.46090000000000   -1.05250000000003   -3.17549999999999
H         4.50569999999999   -2.48290000000000   -3.01790000000000
H        -3.38499999999999   -4.00130000000000   -2.59310000000000
H        -5.21400000000000    1.52080000000000    1.29960000000000
C         0.23590000000000   -1.68140000000000    2.96029999999999
C        -0.99330949985313   -2.15479031401899    3.48134679367621
C         1.30964909875944   -1.76621359518679    3.84009585204751
N        -1.16396970388577   -2.52071000665925    4.74406797278009
C        -2.26354828210926   -2.39732160140773    2.72090335439506
C         1.18478256316338   -2.27861880287630    5.14449617800072
H         2.29946485320492   -1.50250728544346    3.48684121190929
C        -0.11798468248340   -2.62601972907077    5.57662648389835
H        -2.85217810924717   -3.12584968514788    3.27942364869472
H        -2.06231394256959   -2.78641734150004    1.72670554228226
H        -2.85793887007946   -1.48693219299715    2.65219671749156
C         2.25823774842188   -2.57959595970765    6.00493402931466
C        -0.32818420734988   -3.22171115211900    6.82633762313533
C         2.03611020891891   -3.21717966892425    7.20475104455198
H         3.26593931969371   -2.33808461164223    5.69016937421388
C         0.74232478281895   -3.55249839519214    7.63456870167897
H        -1.34409821873193   -3.46973250841509    7.10688209384246
H         2.87794750012413   -3.48323089907621    7.83255353736283
C         0.52130902277554   -4.31162332061406    8.90786925612758
H         0.62690102848838   -5.38273204772667    8.71822766303513
H        -0.48553219046341   -4.13696130531451    9.28866822992182
H         1.24781293913479   -4.02984183530558    9.67013814166657
