105
 energy: -150.781852611696 gnorm: 0.000322574738 xtb: 6.4.1 (1a32961)
N        -0.91956720646033   -2.02449027347442   -0.36775823107414
C        -2.19037995793289   -1.59436949018370   -0.49208651496329
C        -3.09511380916498   -2.26153008815149   -1.33051435803746
C        -2.68054899720805   -3.35338292338716   -2.05930026420053
C        -1.35673881018736   -3.77200065528870   -1.93717598368265
C        -0.52989293785126   -3.07878988214496   -1.07923532519810
H         0.50028430979353   -3.37584907514013   -0.94158533715483
H        -0.98684424036839   -4.61961378378130   -2.49072210015178
H        -4.11741609514770   -1.92935377462143   -1.40681848674482
C        -2.55344901901777   -0.41152855963024    0.27449306317809
N        -1.60951532701024    0.08398010024259    1.10365414192189
C        -1.89557548237609    1.16875342476303    1.82002057127282
C        -3.10925563216716    1.82098012572376    1.76449350755309
C        -4.08905845952272    1.33076988769973    0.90310361956661
C        -3.80185312743040    0.21288083038031    0.15175613074534
H        -4.54184657997222   -0.17121479581886   -0.53083335787871
H        -3.29127770355784    2.68745365157422    2.37969581903013
H        -1.10008084788219    1.51721149641339    2.46081768781388
Ir        0.42150000000006   -0.81649999999993    0.91329999999992
H         0.87259999999999   -2.23029999999999    1.54050000000009
B         0.33139138926917    0.66505912984542   -0.55937960764914
O        -0.31667486781581    0.39542720539180   -1.75002642043228
C        -0.46299766911787    1.59722270428504   -2.51417380493201
C        -0.20699903609002    1.30104946535017   -3.98986219811047
H         0.73615373595761    0.78038287881332   -4.11776934742800
H        -0.19612295908606    2.22595058490822   -4.56078470101567
H        -1.00181007795686    0.66325798718285   -4.36950535529351
C        -1.91252373501293    2.07262407152636   -2.33965852656646
H        -2.10979349528677    2.95619634660389   -2.93950336144923
H        -2.58210541092450    1.27410280756470   -2.65353809469643
H        -2.11407979572479    2.28853430521249   -1.29236429426556
C         0.57230953946158    2.55742200882438   -1.84157178415673
O         0.72288210565972    1.98484383505433   -0.53511801529670
C         1.94902376553267    2.49521256456101   -2.51402183178035
H         2.29512885055279    1.46463968747896   -2.51712459272637
H         1.91458148937048    2.89130246664756   -3.52477213208307
H         2.65271853931946    3.08179677667433   -1.92831883237273
C         0.12471973979101    4.01328346523340   -1.72585862202018
H        -0.75145574076851    4.10777509996242   -1.09163885387370
H         0.92723190608721    4.59892339809038   -1.28384165956438
H        -0.09718560102737    4.41327094452497   -2.71199640077268
B         1.55987262257802    0.65686074922017    1.86804659599329
O         2.90207190279757    0.91895651945719    1.73944203812697
C         3.23276255534826    2.17127940322547    2.35561232941004
C         4.54658214383112    2.03043998767219    3.12366877223785
H         4.49423065259933    1.21307618953204    3.83388224609045
H         5.34554467898226    1.81638388123646    2.41864966879895
H         4.77746938081957    2.95550590862810    3.64473746034140
C         3.41724589427764    3.18231368593834    1.21789472545047
H         3.64188985260021    4.17462563191687    1.59733663249292
H         4.24009830929991    2.84853339969683    0.58997550351663
H         2.51674500759401    3.19918167734626    0.61042647739442
C         1.97555972849602    2.46884235257922    3.24664932028660
O         0.98710160204894    1.57539382603463    2.71765190869130
C         1.44654782759617    3.90059719487395    3.15486285921928
H         1.13034652480856    4.12925536715282    2.14246262668624
H         0.58550375346930    4.00090083717833    3.81145226153600
H         2.20985826049668    4.60651843132849    3.47024688134425
C         2.17484869219810    2.10437112071654    4.72250068877709
H         2.49255231901912    1.06944913276735    4.81130609902178
H         2.90209454807331    2.76019008425064    5.19098084144618
H         1.22232272981650    2.20664404724476    5.23752509690895
B         2.27819999999921   -1.33089999999994    0.17410000000086
O         3.22155808032320   -2.23525470946493    0.59760552875346
C         4.39823151806488   -2.14340270020919   -0.21983036980117
C         5.40381528912042   -1.26744376317751    0.53462595440577
H         4.94243443202422   -0.30817851053807    0.75319564201180
H         5.64731478863842   -1.74638687392385    1.47838597861864
H         6.31550930349600   -1.13183418324381   -0.03880375537694
C         4.98710442518450   -3.53637422482753   -0.43135786072231
H         5.33808051240099   -3.92014828979535    0.52236883131420
H         5.82553789139691   -3.48415386081777   -1.12035341447671
H         4.24352832820922   -4.22533249885327   -0.81730290796456
C         3.86020055372572   -1.44752616391641   -1.51513948560603
O         2.66638757303948   -0.80528716555755   -1.04535282436299
C         4.79706454948210   -0.40651319042423   -2.12504189302371
H         5.75834201254727   -0.85582158490146   -2.35940189325257
H         4.35746520533101   -0.02552125381672   -3.04355396441361
H         4.93539405849894    0.42645818217348   -1.44440788104957
C         3.44248676033046   -2.44515964225645   -2.60439905915560
H         2.77098418670045   -3.19228119926277   -2.19063179836938
H         2.90453525268930   -1.90595837784000   -3.38036188683737
H         4.30894770214670   -2.93036499723693   -3.04341145439815
H        -3.36737500787085   -3.87308185257953   -2.71008218235763
H        -5.05008207912426    1.81621171231718    0.82294282383486
C         0.23590000000077   -1.68139999999896    2.96029999999898
C        -1.12324149446116   -1.94952763825945    3.14624009563540
C         0.98030703926589   -1.57992178929774    4.14433704744391
C        -1.72228179443802   -1.89525429601948    4.40033513925511
H        -1.76225906727742   -2.19504804036786    2.31078537667111
C         0.24304686676107   -1.52656879747135    5.37158258964058
C         2.35957283469777   -1.52158926975561    4.52793865501752
N        -1.06972783802305   -1.64301271862382    5.52184511929587
H        -2.78939827640097   -2.05063411384057    4.50793715073937
N         1.11639811186874   -1.37876275605970    6.39706774472965
C         2.38821568426682   -1.40396399224009    5.88813070631846
C         3.56306816093975   -1.74056134418816    3.67671032301410
H         0.85871357925252   -1.33143464152814    7.36767055541039
H         3.23795960118723   -1.33616536453209    6.54042318144419
C         3.81965055139176   -3.24183251591907    3.52068917250609
H         4.42968559834980   -1.27942233304308    4.15706896918964
H         3.40832382589970   -1.29481773004043    2.69775629743891
H         4.73953131668639   -3.41483036984946    2.96956603242073
H         3.00187287391470   -3.69851965837550    2.97142751810650
H         3.90273819048956   -3.71954121810960    4.49556913644228
