118
 energy: -173.593718592528 gnorm: 0.000480971652 xtb: 6.4.1 (1a32961)
N        -0.89049234462193   -1.94044830328817   -0.47689969609001
C        -2.14429687957623   -1.46385292042106   -0.60290487314660
C        -2.98270660477174   -1.90449312675140   -1.63442244075749
C        -2.53002502387521   -2.84591629791409   -2.53223759537558
C        -1.23480431833181   -3.33663134918266   -2.38475049244174
C        -0.46436156892517   -2.84951234367395   -1.35019408646140
H         0.54776936476359   -3.19710580445938   -1.20064180663346
H        -0.83941215551193   -4.07642355272615   -3.06158806780004
H        -3.97740089795610   -1.50407327354397   -1.74174447697021
C        -2.55538980899181   -0.46199831797565    0.37218155376173
N        -1.60163503223756   -0.01579159873436    1.21614788805983
C        -1.92715458077164    0.90874476263889    2.11645846124612
C        -3.19526719373917    1.43790125187460    2.24135954184955
C        -4.19364914377467    0.98107760722382    1.38451427690694
C        -3.86584328512980    0.02774221928991    0.44529949849039
H        -4.62639563824025   -0.34388313850270   -0.22130622420482
H        -3.40310187705897    2.18127579828031    2.99398695948776
H        -1.11970483604049    1.23387930394007    2.75420883878301
Ir        0.42149999999989   -0.81650000000187    0.91330000000219
H         0.87259999999972   -2.23030000000023    1.54050000000082
B         0.37933625231485    0.72415209351586   -0.50751359051459
O        -0.44775826476438    0.64015317539755   -1.61695483777974
C        -0.57929074400645    1.92864750440702   -2.22648845533708
C        -0.60359256331015    1.78619342218432   -3.74617253002902
H         0.24442775779209    1.20634302877166   -4.09505816767626
H        -0.59059457027721    2.76830590816712   -4.21194814708617
H        -1.51369374034789    1.26939250381540   -4.04160008533684
C        -1.91957658343988    2.51092554119587   -1.75317722824784
H        -2.11434585472165    3.47565906462729   -2.21224248474016
H        -2.71476011657484    1.82039403146117   -2.02783730480911
H        -1.92157056915686    2.61194229055305   -0.66952768031632
C         0.65100450753273    2.70468825663306   -1.65308680594339
O         0.93919838271898    1.97966831020223   -0.45085768058975
C         1.89087030054911    2.59045921862715   -2.54817869127440
H         2.10526272453929    1.54090751547674   -2.73403599406290
H         1.75368681232296    3.12261940361290   -3.48511398568421
H         2.74120403595263    3.01453317343217   -2.01918889091637
C         0.39281039302677    4.17427588926185   -1.32471038150636
H        -0.34757649210785    4.27549178131568   -0.53706841127120
H         1.31829218480985    4.63028906373843   -0.98083500241715
H         0.05302569601213    4.70173961832667   -2.21243474777295
B         1.54976418366893    0.63131458518826    1.90991789572091
O         2.91404116413969    0.77228579896743    1.93369238293345
C         3.27894980159611    2.00442878926303    2.57127903824522
C         4.49467789853518    1.77583813859991    3.46831082294335
H         4.31391802498599    0.96880907607085    4.17008857216868
H         5.34580409158140    1.50264908799949    2.84994361833796
H         4.73409093123542    2.68458851022540    4.01367487716987
C         3.64730873055510    2.98347896594923    1.45007743677601
H         3.90761302031296    3.96169468503104    1.84294498764010
H         4.49989511966978    2.58317741618539    0.90601952556024
H         2.81277715255618    3.05691659461301    0.75794551503801
C         1.96606384720711    2.40583314798771    3.32993619537877
O         0.96516418166926    1.61352666684844    2.67765284469718
C         1.58569241326619    3.88156911408925    3.21742255236364
H         1.39944601449777    4.14970576274634    2.18278871624910
H         0.67481450872986    4.05717803227124    3.78467025847377
H         2.37631347532769    4.50654241623749    3.62350066751349
C         1.97164172705722    1.99841078954885    4.80925571690187
H         2.17124638622468    0.93505882911223    4.90612356010458
H         2.70776954386816    2.56641265660574    5.36947986372314
H         0.98658962233544    2.19028810898339    5.22848485627195
B         2.27820000000903   -1.33090000000363    0.17410000000113
O         3.21679861187686   -2.15242644630866    0.75646434844306
C         4.44239312018915   -2.11885294459938    0.01359505381563
C         5.40724471599330   -1.22440513904776    0.79895667905978
H         4.93310224780130   -0.26240451933578    0.96961842873460
H         5.59107058606983   -1.68327262198410    1.76700859299360
H         6.35247977452103   -1.10273889141478    0.27916297329599
C         5.02081508201072   -3.53146802294327   -0.07404705167305
H         5.26720409674465   -3.87108757906254    0.92846887792857
H         5.92391739975669   -3.52877289927098   -0.67795768764086
H         4.30362532972808   -4.22730994166621   -0.49629390580511
C         4.00484455561298   -1.49526889121075   -1.36034425201435
O         2.73113064605016   -0.90911980385849   -1.05634008177975
C         4.93361613209293   -0.40704604495951   -1.89785046161062
H         5.93395849968146   -0.80213009729805   -2.05138068027785
H         4.54685968367079   -0.05146779100238   -2.84964564374712
H         4.96868384786717    0.43323681332638   -1.21310474163843
C         3.77521609025060   -2.54134590801949   -2.45982809368766
H         3.08278875860042   -3.30461834435360   -2.11618437424644
H         3.33116125779339   -2.04792848254505   -3.32096248561972
H         4.71082082244642   -3.00304068322662   -2.76021581076142
H        -3.16526188935493   -3.19191068991291   -3.33335768514173
H        -5.20121125850330    1.36226700250146    1.45389022828701
C         0.23589999998756   -1.68139999999465    2.96029999999237
C        -1.01807693954433   -2.10034957616777    3.40995773815902
C         1.27086055928024   -1.59032025971428    3.88875330121663
C        -1.28818627259018   -2.35882256152601    4.74846088534140
H        -1.82292893912419   -2.24842609130050    2.70401000317298
C         1.02068997284601   -1.84243837887588    5.22685759938626
H         2.26814299026142   -1.34759560433718    3.55767312694027
C        -0.26104315712031   -2.23113819570272    5.66593553779269
H        -2.27358478277703   -2.67403129543956    5.04612713523754
C         1.88342327900083   -1.83598318999913    6.38223954079643
N        -0.21692781983586   -2.46819835198796    7.05561999664128
C         3.23029973575319   -1.54697657721668    6.53955821453834
C         1.10070999927575   -2.22009810118392    7.48707147715563
C        -1.20813081823255   -2.93512863668101    7.87544347388032
C         3.78390423787408   -1.64161782943124    7.80300073223407
H         3.82581046977157   -1.26187051138461    5.68624639252808
C         1.65653898456601   -2.31281685067747    8.75113568242092
O        -1.05929561380420   -3.14608714466406    9.06095585529955
O        -2.35768996772910   -3.14620488000014    7.22774100976267
C         3.00431883883729   -2.01809310168451    8.89016692930842
H         4.83094396458676   -1.42340407636852    7.94954456727326
H         1.06578741303975   -2.60823414432746    9.60157274846555
C        -3.45796062449359   -3.67757495363502    7.99824916204750
H         3.45448882377321   -2.08706564047359    9.86886272809623
C        -4.19997810898519   -2.54194608733003    8.69433501695283
C        -4.34603979135070   -4.44397967505374    7.02816155685846
H        -3.03644988060979   -4.35568773892320    8.75179739697208
H        -4.56544470668031   -1.82913098347743    7.95895366615711
H        -3.53233364804293   -2.02985288614300    9.38358881818536
H        -5.03913243550283   -2.94451896018887    9.25345146190121
H        -4.76733943195674   -3.76346788259991    6.29309842288549
H        -5.15205796196591   -4.92179739273201    7.57624665764198
H        -3.76736329003663   -5.20506981839061    6.51119993839467
