108
 energy: -154.729669156097 gnorm: 0.001411924034 xtb: 6.4.0 (f63f532)
N        -0.96510000000000   -2.11530000000000   -0.24090000000000
C        -2.24700000000000   -1.69840000000000   -0.36220000000000
C        -3.14040000000000   -2.36820000000000   -1.21200000000000
C        -2.70220000000000   -3.47560000000000   -1.93050000000000
C        -1.37779999999999   -3.89880000000000   -1.78760000000000
C        -0.54290000000000   -3.18670000000000   -0.93510000000000
H         0.49810000000000   -3.45630000000000   -0.78940000000000
H        -0.99570000000000   -4.76030000000000   -2.32770000000000
H        -4.16500000000000   -2.02890000000000   -1.31830000000000
C        -2.62130000000000   -0.50950000000000    0.44100000000000
N        -1.62600000000000    0.07330000000000    1.16020000000000
C        -1.89680000000000    1.15240000000000    1.91690000000000
C        -3.17230000000000    1.70330000000000    1.99650000000000
C        -4.20510000000000    1.11740000000000    1.26270000000000
C        -3.92610000000000    0.00250000000001    0.47820000000000
H        -4.71960000000000   -0.46420000000000   -0.09520000000000
H        -3.34630000000000    2.57510000000000    2.62070000000001
H        -1.04450000000000    1.57420000000001    2.43690000000000
Ir        0.42150000000000   -0.81650000000000    0.91330000000000
H         0.87260000000000   -2.23030000000000    1.54050000000000
B         0.50670000000000    0.41560000000000   -0.81540000000000
O         0.19500000000000   -0.04700000000000   -2.09150000000000
C         0.00650000000000    1.10040000000000   -2.95430000000000
C         0.49020000000000    0.74740000000000   -4.35780000000000
H         1.51610000000000    0.37380000000000   -4.33700000000000
H         0.44729999999999    1.62240000000000   -5.01670000000000
H        -0.14740000000000   -0.03390000000000   -4.78430000000000
C        -1.50120000000000    1.39560000000000   -2.96670000000000
H        -1.75370000000000    2.21460000000000   -3.64850000000000
H        -2.03200000000000    0.49450000000000   -3.28930000000000
H        -1.85170000000000    1.65210000000000   -1.96220000000000
C         0.84230000000000    2.20670000000000   -2.22040000000000
O         0.75200000000000    1.78260000000000   -0.83690000000000
C         2.32930000000001    2.18620000000000   -2.59900000000001
H         2.74130000000000    1.18500000000000   -2.45750000000000
H         2.48870000000000    2.51300000000000   -3.63180000000000
H         2.87200000000000    2.86270000000000   -1.93200000000000
C         0.28440000000000    3.62290000000000   -2.33659999999999
H        -0.72650000000000    3.69040000000000   -1.92910000000001
H         0.92130000000000    4.31480000000000   -1.77610000000000
H         0.26430000000000    3.94810000000000   -3.38320000000001
B         1.56300000000000    0.60960000000000    1.84840000000000
O         2.92780000000000    0.55230000000000    2.15020000000000
C         3.36330000000000    1.88660000000000    2.50260000000000
C         4.53140000000000    1.78590000000000    3.47740000000000
H         4.27910000000000    1.16090000000000    4.33690000000001
H         5.39390000000000    1.33790000000000    2.97340000000001
H         4.82390000000001    2.77870000000000    3.83820000000001
C         3.79700000000001    2.56850000000000    1.19669999999999
H         4.20020000000000    3.57090000000000    1.37679999999999
H         4.56740000000000    1.95560000000000    0.72110000000000
H         2.95240000000000    2.63260000000000    0.50540000000000
C         2.05040000000000    2.50090000000001    3.09320000000000
O         1.03750000000000    1.81620000000000    2.31910000000000
C         1.89100000000000    4.00450000000000    2.88650000000001
H         1.87290000000000    4.25440000000000    1.82410000000000
H         0.94940000000001    4.34260000000000    3.33170000000000
H         2.71079999999999    4.55150000000000    3.36629999999999
C         1.82470000000000    2.13200000000000    4.56519999999999
H         1.92610000000000    1.05330000000000    4.71320000000000
H         2.52610000000000    2.65280000000001    5.22540000000000
H         0.80630000000000    2.41580000000001    4.84900000000000
B         2.27820000000000   -1.33090000000000    0.17410000000000
O         2.89460000000000   -2.57740000000000    0.38450000000000
C         4.26930000000000   -2.48200000000000   -0.07210000000000
C         5.10900000000000   -2.05380000000000    1.14010000000000
H         4.76350000000000   -1.08739999999999    1.51750000000000
H         4.98050000000000   -2.79470000000001    1.93590000000000
H         6.17420000000000   -1.99290000000000    0.89300000000000
C         4.71949999999999   -3.84660000000000   -0.58470000000001
H         4.75280000000000   -4.56130000000000    0.24420000000000
H         5.72330000000001   -3.78370000000000   -1.02010000000000
H         4.03500000000000   -4.23600000000000   -1.34170000000000
C         4.16439999999999   -1.36220000000000   -1.16299999999999
O         3.08520000000000   -0.55030000000001   -0.65400000000000
C         5.40720000000001   -0.48870000000000   -1.31550000000001
H         6.27320000000000   -1.09009999999999   -1.61530000000000
H         5.23300000000000    0.26930000000000   -2.08590000000000
H         5.64270000000000    0.02650000000000   -0.38240000000001
C         3.71800000000001   -1.89830000000000   -2.53110000000001
H         2.82529999999999   -2.52160000000000   -2.42739999999999
H         3.46090000000000   -1.05249999999998   -3.17550000000001
H         4.50570000000000   -2.48290000000002   -3.01790000000000
H        -3.38500000000001   -4.00130000000002   -2.59309999999999
H        -5.21399999999999    1.52080000000001    1.29959999999998
C         0.23589999999999   -1.68140000000002    2.96029999999997
C        -0.87555936709216   -2.10306098390091    3.71549352159505
C         1.47666207003563   -1.83041060198522    3.61364880692332
C        -2.32851797701457   -1.93008574810675    3.34417523593894
C        -0.69557955572082   -2.65752653672775    4.98787925554209
C         1.65023511078797   -2.36049647786224    4.88089352360142
H         2.37226932721441   -1.54536428969994    3.07721122133756
C        -2.94298328319892   -2.91794230334603    2.39089910628065
H        -2.92811411511927   -1.99472108924165    4.25966745320023
H        -2.50349986844454   -0.92526922851012    2.95961215260645
C         0.54522062323840   -2.82046846981577    5.57755556406893
H        -1.57238269231607   -2.99050419108704    5.53270366508568
H         2.64519680079318   -2.45425754791696    5.29809936290575
N        -4.22592021756435   -2.67017619228970    2.09864548427567
C        -2.27633773568544   -4.03227004197385    1.89207307029309
H         0.64141580869264   -3.29121627384286    6.54752507007699
C        -4.87659284360352   -3.52069993305954    1.31268017406662
C        -2.96679674368669   -4.91209815369062    1.07254959843749
H        -1.23861643697469   -4.19779625153565    2.14654772801936
C        -4.29849339316211   -4.65774499812053    0.77629780170859
H        -5.91231987453570   -3.26376527968860    1.12097654663254
H        -2.47279152639442   -5.78747067047429    0.67091090423404
H        -4.87277530759726   -5.32269704684463    0.14756349416756
