99
 energy: -143.978399062275 gnorm: 0.000797448217 xtb: 6.4.1 (1a32961)
N        -0.93696164485860   -2.02590117921359   -0.34455803820875
C        -2.18237715743063   -1.54334306505971   -0.51352267550872
C        -3.08025239235909   -2.16112650584351   -1.39386318068307
C        -2.68674558506066   -3.27083277997585   -2.10887023097284
C        -1.39219169398107   -3.75288529333336   -1.93075503327129
C        -0.56723196504618   -3.09745345010490   -1.04114469416939
H         0.44260447813977   -3.44028291050659   -0.86521933779413
H        -1.04034080302779   -4.61800021798295   -2.46876848985217
H        -4.07978043139780   -1.77797795352944   -1.51669571769841
C        -2.52474007263052   -0.35690869731970    0.26051904871674
N        -1.57439000402569    0.11020527296705    1.09838874089426
C        -1.84390856685221    1.18931406624689    1.83062423647496
C        -3.04453827314094    1.86684338142245    1.77636011016562
C        -4.02862551445885    1.40769957149796    0.90475428254565
C        -3.76133632260646    0.28996096861727    0.14407386074751
H        -4.50901051462986   -0.07665021757077   -0.53937982913673
H        -3.21038952284584    2.73081630637846    2.39928794606761
H        -1.04620195485061    1.51419640684299    2.48089241377495
Ir        0.42150000000000   -0.81650000000012    0.91330000000005
H         0.87259999999997   -2.23030000000000    1.54049999999988
B         0.41738845850518    0.59159014529557   -0.62187739492493
O        -0.16079090982509    0.27436325745088   -1.83511827295699
C        -0.25723466060876    1.44405461662264   -2.65552958517747
C         0.09416335461743    1.08814473880387   -4.09805661157778
H         1.04518347236498    0.56821483411530   -4.14325906109356
H         0.13854640339378    1.98828532337760   -4.70570986443288
H        -0.67235846045387    0.43002912109247   -4.50019096219837
C        -1.71645591681823    1.91799148935834   -2.59466339272381
H        -1.87698823270660    2.77663422618493   -3.23987589634953
H        -2.35980934444924    1.10322375838662   -2.92144627112632
H        -1.98770857058710    2.17174707650961   -1.57177504274819
C         0.73366714679115    2.43304213992864   -1.95690261970305
O         0.80587381193493    1.91175915734369   -0.62208035196284
C         2.15030589004539    2.35001999162040   -2.53799036603674
H         2.49810323297436    1.32166094915378   -2.47644126028248
H         2.18066165231879    2.70528291908988   -3.56390899495199
H         2.81296202348779    2.96255637864825   -1.93123041365292
C         0.27778031468620    3.89030277824772   -1.92567800358936
H        -0.64341998933267    4.00482647892783   -1.36281517115109
H         1.04491002841663    4.49268325313206   -1.44515746569301
H         0.13070796305477    4.25466607167391   -2.93919609492065
B         1.58866085953592    0.62610160960418    1.87874413861668
O         2.94875245855572    0.80440560839943    1.80607805642248
C         3.32094165077740    2.04913654897031    2.41340059312476
C         4.61243643243259    1.86768319462698    3.20903622358887
H         4.52331237336292    1.04136908721592    3.90641159408396
H         5.42635394264285    1.64849682025815    2.52269475369716
H         4.84888539225461    2.77940929551762    3.75071031840521
C         3.55750029740036    3.03705561023629    1.26475529281463
H         3.82600819180577    4.02260073233503    1.63302170998337
H         4.36619464935168    2.65809824944898    0.64379509609143
H         2.66143697071174    3.08737941640215    0.65147042082243
C         2.06180578196322    2.40489213919387    3.27693533239241
O         1.03784473420853    1.58483513859214    2.69883876995881
C         1.62996006526683    3.86917750240889    3.20845937143990
H         1.34835408210394    4.14020832116696    2.19631771976613
H         0.76695924726019    4.01499420181890    3.85352338144537
H         2.43504004540753    4.51346749598763    3.55113299318460
C         2.19848874558266    1.98953305795167    4.74716472873510
H         2.45466188038761    0.93577379128741    4.81741280177358
H         2.94882514332437    2.58744714932150    5.25502633601449
H         1.24029499866514    2.13347707480803    5.24115683739854
B         2.27819999999989   -1.33089999999989    0.17409999999957
O         3.12095720796056   -2.28363527750915    0.70871449589627
C         4.39887787831292   -2.24910438520456    0.06041045850590
C         5.35554358647081   -1.52690878286010    1.01582383492978
H         4.94025267482658   -0.55418494049245    1.26375799047929
H         5.42982625488373   -2.10688389440361    1.93267737719317
H         6.34604168316439   -1.42199932244465    0.58446580914980
C         4.89122881484499   -3.67933333555040   -0.16122742813192
H         5.03461735052019   -4.15253068048611    0.80668626041462
H         5.83805557519503   -3.67107732320746   -0.69363634320919
H         4.16744426950247   -4.26571250310333   -0.71724307550561
C         4.10316042244198   -1.43506917991091   -1.24925319060006
O         2.84874872577699   -0.79908098021927   -0.95795343599871
C         5.13924452040322   -0.36211605337302   -1.58123451990360
H         6.12219269188885   -0.80863197847923   -1.70180581412463
H         4.86022037334952    0.12704518636719   -2.51107624985555
H         5.16724387262740    0.38877808915513   -0.79929588504658
C         3.88602574366399   -2.32275104637579   -2.48190080584000
H         3.11030164211645   -3.05744517799059   -2.28457376254493
H         3.55147602525562   -1.69697503151782   -3.30572933716560
H         4.80519235155666   -2.82378783100435   -2.76971556896203
H        -3.36834433876734   -3.75435471795416   -2.79196899686455
H        -4.97888989270358    1.91353735911164    0.82441438251282
C         0.23590000000112   -1.68139999999968    2.96030000000192
C        -1.02089704918232   -1.86672228441869    3.41348624124140
C         1.18763825969473   -1.70904145731079    4.03782257357214
S        -1.15219319139986   -1.99167293496089    5.15809727558101
H        -1.94008355018882   -1.94672699919462    2.86559727508292
C         2.58113822146505   -1.65027740822152    3.97651313746570
C         0.57770547672846   -1.84706815653440    5.30086522498245
C         3.31661251934961   -1.69637709174579    5.14203835140680
H         3.04741819238780   -1.56815097570966    3.00853753537809
C         1.31697545485136   -1.88470011414369    6.47393959902415
C         2.69149839830984   -1.80286126714203    6.38494095901690
H         4.39530699153008   -1.65005632620287    5.09906119986763
H         0.82215034115528   -1.98395820840436    7.42789439058240
H         3.28708325907429   -1.83029571686834    7.28524999202387
