118
 energy: -173.543843483159 gnorm: 0.003239223379 xtb: 6.4.1 (1a32961)
N        -0.96510000000000   -2.11529999999968   -0.24090000000004
C        -2.24699999999985   -1.69839999999999   -0.36220000000000
C        -3.14039999999996   -2.36820000000001   -1.21199999999997
C        -2.70220000000000   -3.47560000000000   -1.93049999999999
C        -1.37780000000001   -3.89880000000003   -1.78759999999998
C        -0.54290000000002   -3.18670000000006   -0.93509999999994
H         0.49809999999999   -3.45630000000000   -0.78940000000001
H        -0.99570000000001   -4.76030000000000   -2.32770000000001
H        -4.16500000000001   -2.02890000000000   -1.31829999999999
C        -2.62130000000005   -0.50950000000001    0.44099999999999
N        -1.62600000000001    0.07330000000000    1.16020000000000
C        -1.89680000000000    1.15240000000000    1.91690000000000
C        -3.17230000000000    1.70330000000000    1.99650000000000
C        -4.20510000000000    1.11740000000000    1.26270000000001
C        -3.92609999999999    0.00250000000000    0.47820000000000
H        -4.71960000000000   -0.46420000000000   -0.09520000000000
H        -3.34630000000000    2.57509999999999    2.62070000000000
H        -1.04450000000000    1.57420000000000    2.43690000000000
Ir        0.42150000000000   -0.81650000000000    0.91330000000001
H         0.87260000000000   -2.23030000000000    1.54050000000000
B         0.50669999999999    0.41560000000000   -0.81540000000000
O         0.19500000000000   -0.04700000000000   -2.09150000000000
C         0.00650000000000    1.10039999999999   -2.95430000000000
C         0.49019999999999    0.74740000000001   -4.35780000000000
H         1.51610000000000    0.37380000000000   -4.33700000000000
H         0.44730000000000    1.62240000000001   -5.01670000000000
H        -0.14740000000000   -0.03390000000000   -4.78430000000000
C        -1.50120000000000    1.39560000000000   -2.96669999999999
H        -1.75370000000001    2.21460000000000   -3.64849999999999
H        -2.03200000000000    0.49450000000000   -3.28930000000000
H        -1.85170000000001    1.65210000000000   -1.96220000000000
C         0.84229999999999    2.20669999999999   -2.22040000000000
O         0.75200000000000    1.78260000000000   -0.83690000000000
C         2.32930000000000    2.18620000000000   -2.59900000000000
H         2.74129999999999    1.18500000000000   -2.45750000000000
H         2.48870000000000    2.51300000000001   -3.63180000000000
H         2.87200000000000    2.86270000000000   -1.93200000000000
C         0.28439999999999    3.62290000000000   -2.33660000000000
H        -0.72650000000000    3.69040000000000   -1.92910000000000
H         0.92129999999999    4.31480000000000   -1.77610000000000
H         0.26429999999999    3.94810000000000   -3.38320000000001
B         1.56300000000000    0.60960000000000    1.84840000000000
O         2.92780000000000    0.55230000000000    2.15020000000000
C         3.36330000000000    1.88660000000000    2.50260000000000
C         4.53140000000000    1.78590000000001    3.47740000000000
H         4.27910000000001    1.16090000000000    4.33689999999999
H         5.39390000000000    1.33790000000000    2.97339999999999
H         4.82390000000000    2.77870000000000    3.83819999999999
C         3.79700000000000    2.56850000000000    1.19670000000000
H         4.20020000000000    3.57090000000000    1.37679999999999
H         4.56740000000000    1.95560000000001    0.72110000000000
H         2.95239999999999    2.63260000000000    0.50540000000000
C         2.05040000000000    2.50089999999999    3.09320000000000
O         1.03750000000000    1.81620000000000    2.31910000000000
C         1.89099999999999    4.00450000000000    2.88650000000000
H         1.87290000000000    4.25440000000001    1.82410000000000
H         0.94940000000001    4.34260000000000    3.33169999999999
H         2.71080000000000    4.55150000000000    3.36630000000000
C         1.82470000000000    2.13200000000000    4.56520000000000
H         1.92610000000001    1.05330000000000    4.71320000000000
H         2.52610000000001    2.65280000000001    5.22539999999999
H         0.80630000000000    2.41579999999999    4.84900000000000
B         2.27820000000000   -1.33090000000000    0.17410000000000
O         2.89460000000000   -2.57739999999999    0.38449999999999
C         4.26930000000000   -2.48200000000000   -0.07210000000001
C         5.10900000000000   -2.05380000000001    1.14009999999999
H         4.76350000000000   -1.08740000000000    1.51750000000000
H         4.98050000000000   -2.79469999999999    1.93589999999999
H         6.17420000000000   -1.99290000000000    0.89299999999999
C         4.71949999999999   -3.84659999999999   -0.58470000000002
H         4.75280000000000   -4.56129999999999    0.24419999999999
H         5.72329999999999   -3.78370000000000   -1.02010000000001
H         4.03500000000000   -4.23600000000000   -1.34170000000002
C         4.16439999999999   -1.36220000000000   -1.16300000000002
O         3.08520000000000   -0.55030000000000   -0.65400000000000
C         5.40720000000000   -0.48870000000001   -1.31550000000001
H         6.27319999999999   -1.09009999999999   -1.61530000000001
H         5.23300000000000    0.26930000000000   -2.08590000000000
H         5.64269999999999    0.02650000000000   -0.38240000000001
C         3.71800000000000   -1.89830000000000   -2.53110000000000
H         2.82530000000000   -2.52159999999999   -2.42740000000001
H         3.46090000000000   -1.05250000000000   -3.17550000000001
H         4.50569999999999   -2.48290000000000   -3.01790000000002
H        -3.38500000000001   -4.00129999999999   -2.59310000000000
H        -5.21400000000000    1.52080000000000    1.29960000000000
C         0.23590000000001   -1.68140000000001    2.96030000000000
C        -0.98939441750215   -2.02326297791863    3.58088169325253
C         1.34875447060782   -1.71296396714738    3.80973752715570
C        -2.34358132473799   -2.23514980537990    3.12507738974350
C        -1.07784467194759   -2.09326659178550    4.98857739281457
C         1.27119727142053   -1.95933161760643    5.17168687863836
H         2.32462305138959   -1.55424609306450    3.36989048885590
C        -3.19542265714353   -2.05765228057971    4.22942253542640
C        -2.93950844926971   -2.77414760414198    1.98266181948875
N        -2.42655762496893   -2.16044374325770    5.40657633980187
C         0.04390804081803   -2.11631505552136    5.80474383478670
H         2.17960505715938   -2.02423151838230    5.75720606282130
C        -4.57123384421664   -1.91291749121544    4.08793411792348
C        -4.32095506333796   -2.75380160158222    1.85428802425082
H        -2.32403529074334   -3.27354699366768    1.25229386515863
C        -2.86951337353853   -3.04975242453555    6.38775146316542
H        -0.04203318631706   -2.27134345468731    6.87064951450311
C        -5.12113736159663   -2.20967488085119    2.84706114657382
H        -5.19023996543435   -1.61259666471403    4.91903154142039
H        -4.77661547443064   -3.14973669467788    0.95634054131806
O        -2.13586997189561   -3.72042760429694    7.07805430296682
O        -4.21283629250784   -3.08465638168890    6.42674157228044
H        -6.18595358496215   -2.09125203360950    2.69274555048940
C        -4.90239765143378   -4.30806793917611    6.76504747978689
C        -4.90783096613650   -4.58748895357593    8.26275898217834
C        -6.31466350618237   -4.13980900780310    6.21280680327107
H        -4.39047639064512   -5.12791005237960    6.24341266984466
H        -5.36729546856491   -3.75711744901333    8.79916424375721
H        -3.88910864455045   -4.72741855256083    8.62280055605780
H        -5.47891611197818   -5.49618519363795    8.45071474532921
H        -6.80459722288047   -3.29974256736626    6.70540775859394
H        -6.89270770914053   -5.04513813743351    6.39212338093833
H        -6.28028831463631   -3.94617002184681    5.14098918324925
