111
 energy: -157.923356271445 gnorm: 0.000223665440 xtb: 6.4.0 (f63f532)
N        -0.90906724093060   -2.03115451425893   -0.37855078139266
C        -2.16966773891013   -1.57915790248001   -0.52616591602964
C        -3.04953054113336   -2.18769157515876   -1.43182389513298
C        -2.62227621131876   -3.25049661241369   -2.19619029848647
C        -1.31180701574804   -3.69857509628021   -2.04104221889987
C        -0.50747064013814   -3.05841234632973   -1.12230564649949
H         0.51279402579357   -3.37688353177796   -0.96060434895443
H        -0.93397250202383   -4.52656056831496   -2.61861623516940
H        -4.06129475482788   -1.83187913574484   -1.53736651080805
C        -2.54473984290802   -0.43729572307848    0.29613255881204
N        -1.60600827184102    0.02492577652049    1.15110711213694
C        -1.90958204780610    1.06063766879304    1.93088521290530
C        -3.12954913279690    1.70395664596921    1.90455690402843
C        -4.10046388254671    1.25333730253883    1.01274351814461
C        -3.80073466379266    0.17677579713119    0.20715399427071
H        -4.53814460480050   -0.18399366814740   -0.49078572173836
H        -3.32169648136605    2.53493135405037    2.56386412016653
H        -1.12153812359733    1.38252692390701    2.59392804224790
Ir        0.42149999999992   -0.81649999999990    0.91330000000004
H         0.87260000000007   -2.23030000000010    1.54049999999992
B         0.38452955433221    0.63540334659758   -0.58875899865221
O        -0.31114546772958    0.37820422884184   -1.75848595973755
C        -0.40959779137199    1.57066910243595   -2.54326047636763
C        -0.23116169413099    1.23196183810271   -4.02117056859694
H         0.66875262916402    0.64568177218175   -4.17470923661116
H        -0.17909367852241    2.14402076793936   -4.61017160923535
H        -1.08161195432389    0.64410305614428   -4.35855099444256
C        -1.81857308465438    2.14004989705992   -2.32129386331747
H        -1.98479306953660    3.02563592776165   -2.92759551173411
H        -2.54808220699239    1.38020593330794   -2.59526162062520
H        -1.96329905963168    2.38141970399460   -1.27001549502723
C         0.71003639930922    2.47382422463675   -1.93068649866157
O         0.86442588940267    1.92554108501346   -0.61507223786214
C         2.05825337744991    2.29971323095699   -2.64076794717248
H         2.33039912234655    1.24691985842937   -2.63414001578350
H         2.02535675518580    2.68095845360999   -3.65741240878059
H         2.81790507643483    2.84195499878427   -2.08249688250692
C         0.36660105573639    3.95945445190042   -1.84256694349972
H        -0.48344801038710    4.12950263768631   -1.18913017212309
H         1.21943438357000    4.49816932508013   -1.43645327612557
H         0.14603347670660    4.34941277071138   -2.83311139679471
B         1.55876039766107    0.65523571601734    1.86122227330153
O         2.92656591956924    0.79923178910849    1.86858316337999
C         3.28751486016609    2.07338786812014    2.41987613263839
C         4.53359155247100    1.92738987146851    3.29229734805139
H         4.40284632610747    1.14573707494704    4.03310765180976
H         5.37939796871851    1.65964183957602    2.66420770153269
H         4.75217576393410    2.86828472415751    3.79013420532036
C         3.59867267479057    2.99050242911671    1.23081526541676
H         3.86309352125960    3.99222762268476    1.55635248255268
H         4.43259798150086    2.56737787667056    0.67504753862549
H         2.73550498629119    3.01591031831538    0.57072895173291
C         1.98969929638437    2.49571154259712    3.18991486572836
O         0.98197120717940    1.67526314400733    2.58543148845048
C         1.60128720319808    3.96540044000626    3.03699903145925
H         1.38504618863780    4.19769196750350    1.99963886309827
H         0.70655571284985    4.15910460304882    3.62362069083209
H         2.40193109071032    4.60534139177689    3.39800746027144
C         2.02981730429205    2.13673704621907    4.68091837065225
H         2.25382988196433    1.08084191685883    4.80236199102253
H         2.76389095572663    2.73769494638035    5.20880247529772
H         1.04753722315892    2.31994222165442    5.11003902740490
B         2.27820000000004   -1.33089999999854    0.17409999999881
O         3.14229707182703   -2.24931637255214    0.73164401143906
C         4.41095282736075   -2.21016947799453    0.06701024259681
C         5.35638606645081   -1.41804300081894    0.97659245979569
H         4.91119815002720   -0.44997569685655    1.18730000784471
H         5.45548884533884   -1.95257764638519    1.91800597246535
H         6.33876006176661   -1.30271886480507    0.52924818206145
C         4.94348731281497   -3.63377831689938   -0.09822669131920
H         5.11684649394501   -4.05788924587515    0.88721273882728
H         5.88102572152708   -3.62085331210248   -0.64702449267387
H         4.22950457897840   -4.26658407934602   -0.61455965580628
C         4.07878651849672   -1.46473979018405   -1.27437304271777
O         2.82083727789459   -0.83488096565233   -0.98971203346044
C         5.09174936192584   -0.39500110439843   -1.67966298491806
H         6.07785277416201   -0.83427486011820   -1.80270577166663
H         4.78400034930584    0.04728886412703   -2.62391583243069
H         5.12818711818893    0.39146589379926   -0.93388503061115
C         3.85391636873383   -2.41565959252322   -2.45806031591447
H         3.10345954046282   -3.15985700923884   -2.20602945157969
H         3.48297914382572   -1.83887432714067   -3.30200140446817
H         4.77846343778224   -2.90730958993714   -2.74497320893424
H        -3.28919410504610   -3.72475505598790   -2.90029042926013
H        -5.06528793909770    1.73417912416320    0.95282343301366
C         0.23590000000119   -1.68140000000141    2.96029999999641
C        -1.03785591482285   -2.08676563023273    3.34416007038922
C         1.19944265245632   -1.51068929063812    3.95129350345147
C        -1.38322677887535   -2.22969294867285    4.68361919938555
H        -1.79207645824016   -2.30079552674656    2.59798008277333
C         0.86679456248739   -1.64845921894059    5.28807152444937
H         2.21231926616313   -1.27363253099429    3.66355920397927
C        -2.75879289246579   -2.69580805572882    5.07128951717218
C        -0.42171460118233   -1.99655356554533    5.65727959931292
H         1.61823075243923   -1.49643521306423    6.05073960112355
C        -2.79037073418585   -4.23237776411416    5.18645334295926
H        -3.04265903624744   -2.26959681864838    6.03531296928317
H        -3.49084391137839   -2.37836761256230    4.32540188847015
H        -0.67842630478727   -2.10604079802761    6.70136916205018
C        -4.15334064951630   -4.69719254251440    5.60206350247670
H        -2.51930195630277   -4.66794198002995    4.22319414507862
H        -2.06369067719299   -4.54574246757707    5.93590702622506
N        -4.34925160471323   -4.88639192474372    6.90211214965026
C        -5.17256861273928   -4.88384828437871    4.66964090707267
C        -5.54521650061006   -5.26642402213907    7.31897034142644
C        -6.42218049528799   -5.28122577310203    5.11106220917899
H        -4.98034404743767   -4.72297336666748    3.61949447376521
C        -6.61912970610192   -5.48047990944025    6.46983595254884
H        -5.63901926442683   -5.40602041042840    8.38877844804734
H        -7.22970067467898   -5.43588450350032    4.40966878100381
H        -7.57566443143689   -5.79340018947434    6.85774537705505
