30
 energy: -46.889126861064 gnorm: 0.000113034984 xtb: 6.4.1 (1a32961)
C         1.00393259418745    1.18965472098063   -0.01481486084394
C         2.08422339047016    0.32488034276874    0.00667060768967
C         1.86937282312805   -1.05233536369933    0.01949976129332
N         0.67462313230386   -1.62358045658348    0.01430740033556
C        -0.35255004957515   -0.79528009601882   -0.00582549637307
N        -1.69385621790437   -1.13443135299208   -0.01749578430239
C        -2.29208381399017   -2.39344451411582   -0.00754641580545
O        -3.49563195724494   -2.50822032197718   -0.03837073253217
O        -1.39281737803462   -3.34769062119052    0.03830411650836
C        -1.77323834649947   -4.75890363087647    0.05054365367039
C        -2.52572707552413   -5.10653760942153   -1.23268519567113
C        -0.43369361231173   -5.49077589125267    0.10946736560379
C        -2.61277750789851   -5.06422712844272    1.28981688080520
C        -2.42736233246188    0.04595244521794   -0.04280485465543
C        -1.60477620981705    1.11838005737832   -0.04540642573395
C        -0.26449075796161    0.62009233746975   -0.02241719156000
H         1.13669772221620    2.26116667438395   -0.02650621574062
H         3.09340062879257    0.70524607966203    0.01318810833829
H         2.70183443905681   -1.74174895450536    0.03599996310181
H        -1.93160586015392   -4.82754616137215   -2.10011151573567
H        -3.47645337043462   -4.58102763026965   -1.27335651988530
H        -2.71425612290072   -6.17537983189666   -1.26210588831867
H         0.16924576455964   -5.22790145552762   -0.75449306332885
H        -0.60010403706887   -6.56318548594431    0.12046024164827
H         0.10711838621445   -5.20060995589933    1.00533801615595
H        -3.56353010472553   -4.53891583684045    1.24757428509194
H        -2.07966773297598   -4.75581037840929    2.18652793832424
H        -2.80379455702268   -6.13182994902010    1.34183365494234
H        -3.49809917327040   -0.01306141217513   -0.05610988868039
H        -1.89691266315313    2.14914138056927   -0.06259194434197
