95
 energy: -136.701712064213 gnorm: 0.000146504197 xtb: 6.4.1 (1a32961)
N        -0.88517076082838   -2.05274716840258   -0.34563281016225
C        -2.17451503722479   -1.67532695991126   -0.41622472488027
C        -3.09862611978672   -2.41004499710833   -1.17139143823802
C        -2.68320192775526   -3.51693776466420   -1.87795692584855
C        -1.33961317815824   -3.87982681504184   -1.81575852633318
C        -0.49369607661504   -3.12161350666725   -1.03401959544178
H         0.55350918696360   -3.37478595188736   -0.94403802346966
H        -0.96766736369823   -4.73611840334079   -2.35476573850522
H        -4.13671215999452   -2.12238269416398   -1.19677495764200
C        -2.53969903533173   -0.47565409411373    0.32464067209350
N        -1.59578904620924    0.04784817424445    1.13362434813959
C        -1.89373930143220    1.13863299481931    1.83519773054349
C        -3.11557784665918    1.77693418778824    1.77262817459542
C        -4.08890384601113    1.26743849007165    0.91713571190574
C        -3.79209398330216    0.13612738228699    0.18876530701189
H        -4.52578796357875   -0.26479037042546   -0.49099930919436
H        -3.30384568459245    2.65306877750021    2.37223046763404
H        -1.10015085420274    1.51287951525424    2.46378975654804
Ir        0.42149999999997   -0.81650000000006    0.91329999999995
H         0.87260000000002   -2.23030000000003    1.54050000000004
B         0.39833028276022    0.63295951259505   -0.58735588663400
O        -0.26022459365255    0.35848196343997   -1.77231757231569
C        -0.32844911503432    1.53837256486578   -2.58015938954672
C        -0.10158480440783    1.17216046626997   -4.04475231179907
H         0.80515513302681    0.58711795499622   -4.15712246734308
H        -0.03427374299797    2.07259565740807   -4.64992346439970
H        -0.93806507633200    0.57312230571203   -4.39704529245365
C        -1.74137917562835    2.11584492492863   -2.41323755185809
H        -1.88446687294618    2.99130158814082   -3.03973401425835
H        -2.46458708948255    1.35376208540367   -2.69643613906651
H        -1.91814545416155    2.37558517664543   -1.37130433184356
C         0.77356679118661    2.44792717368377   -1.94538203278183
O         0.87844154324142    1.92325133916833   -0.61423991004420
C         2.14548017503666    2.25301521054620   -2.60258031321396
H         2.41101941498427    1.19932365472947   -2.56309218236008
H         2.15137889636369    2.61327695932663   -3.62733282734527
H         2.88712296751271    2.80293318686787   -2.02793976157259
C         0.43558591679315    3.93650712185308   -1.89748608983502
H        -0.43292864377809    4.12362468853000   -1.27379800221261
H         1.27857283032197    4.47939490041981   -1.47679347496991
H         0.24708147778768    4.30699289020727   -2.90195771586489
B         1.56094967325983    0.63175382561122    1.90201250495644
O         2.93218740368520    0.75851797645944    1.92572434307980
C         3.30130357110337    2.03109883640204    2.47584434180718
C         4.55212248093663    1.88223553178581    3.34082030658047
H         4.42578686235553    1.10004552535377    4.08197183297172
H         5.39392781515599    1.61474545769576    2.70729194628098
H         4.77450655839703    2.82239954696363    3.83838506820205
C         3.60690770448341    2.94776399668286    1.28514032317583
H         3.88154926328299    3.94709000890320    1.60961237082403
H         4.43200624162568    2.51888908130617    0.72088457931562
H         2.73786664713648    2.97940770936419    0.63293415722647
C         2.00918434990993    2.45702494320979    3.25172675727134
O         0.99435585833237    1.65003936515929    2.64004456402180
C         1.63178102003430    3.93086906747001    3.11338068999704
H         1.40916346146542    4.17167246310149    2.07931993262170
H         0.74332607169881    4.12778722455320    3.70847692177471
H         2.44065915244605    4.56150555917950    3.47241902508853
C         2.04966463557015    2.08280824884206    4.73913489930115
H         2.27239954986092    1.02515240062910    4.84957734427796
H         2.78637663070533    2.67603788329102    5.27212368800634
H         1.06832056323886    2.26471287695746    5.17123379198668
B         2.27820000000005   -1.33090000000196    0.17409999999927
O         3.09980336325223   -2.29956306166482    0.71565380740856
C         4.39023069609254   -2.26724347791961    0.09344341393203
C         5.32640068130581   -1.54818137259698    1.07110997181423
H         4.90240470669359   -0.57795238524180    1.31380694904217
H         5.37783441504956   -2.13017134479211    1.98800274887159
H         6.32660295796526   -1.44162986631139    0.66291100284028
C         4.88647453605295   -3.69700090303525   -0.12335051816154
H         5.01283345949431   -4.17339728657904    0.84534212277260
H         5.84261811552111   -3.68714363205543   -0.63894748493273
H         4.17269035963675   -4.28179582036305   -0.69383061401483
C         4.12300432332191   -1.44902174827205   -1.21942061114763
O         2.87254258625493   -0.79858765167265   -0.94541516933007
C         5.17651630599217   -0.38916896889582   -1.53755475840929
H         6.15405340633206   -0.84951347824399   -1.65113767462128
H         4.91155547852789    0.10818481506135   -2.46711047147963
H         5.20881392323525    0.35760817002520   -0.75194005101332
C         3.91263800847462   -2.33392169906925   -2.45556849960001
H         3.13217845456752   -3.06586998651674   -2.26643376615108
H         3.58810251874644   -1.70503741287865   -3.28112172204504
H         4.83204494366976   -2.83883761741742   -2.73613686398305
H        -3.38461143039045   -4.09099352318072   -2.46418454525265
H        -5.05138004308156    1.74739772252119    0.82296478067246
C         0.23590000000189   -1.68139999999876    2.96030000000179
N        -1.02988465312514   -1.99058523028513    3.20284405340300
C         1.17585429403265   -1.57841627943587    3.99108035001398
C        -1.43622017393737   -2.12073056760017    4.45736769472561
C         0.74984772835180   -1.72415186571713    5.29751670125124
H         2.20967305016857   -1.38966776476701    3.74887740366175
C        -0.59334458459573   -1.98943002131806    5.54596216242516
H        -2.48847600444605   -2.35016844483710    4.58507779663711
H         1.44867255454940   -1.64162442367198    6.11904844535839
H        -0.96500205620326   -2.10654534164585    6.55235413462591
