106
 energy: -152.885067492850 gnorm: 0.000578916076 xtb: 6.4.0 (f63f532)
N        -0.96509999999999   -2.11530000000006   -0.24089999999999
C        -2.24699999999998   -1.69839999999997   -0.36219999999998
C        -3.14040000000003   -2.36820000000004   -1.21200000000003
C        -2.70220000000006   -3.47559999999995   -1.93050000000007
C        -1.37780000000003   -3.89879999999996   -1.78759999999999
C        -0.54290000000003   -3.18670000000006   -0.93509999999991
H         0.49810000000001   -3.45630000000000   -0.78940000000002
H        -0.99570000000002   -4.76029999999997   -2.32770000000004
H        -4.16500000000001   -2.02889999999999   -1.31829999999999
C        -2.62130000000000   -0.50950000000002    0.44099999999999
N        -1.62599999999999    0.07330000000002    1.16020000000000
C        -1.89680000000000    1.15240000000003    1.91689999999997
C        -3.17230000000000    1.70329999999996    1.99649999999996
C        -4.20510000000000    1.11739999999993    1.26270000000004
C        -3.92610000000002    0.00249999999995    0.47819999999999
H        -4.71960000000002   -0.46419999999999   -0.09520000000000
H        -3.34630000000000    2.57510000000007    2.62070000000001
H        -1.04450000000001    1.57419999999999    2.43690000000000
Ir        0.42150000000000   -0.81650000000000    0.91330000000000
H         0.87260000000000   -2.23030000000000    1.54050000000000
B         0.50670000000000    0.41559999999988   -0.81540000000002
O         0.19500000000000   -0.04699999999999   -2.09150000000002
C         0.00650000000001    1.10039999999991   -2.95429999999992
C         0.49020000000000    0.74740000000007   -4.35780000000007
H         1.51609999999999    0.37380000000003   -4.33700000000000
H         0.44729999999999    1.62240000000009   -5.01670000000001
H        -0.14740000000005   -0.03390000000001   -4.78430000000001
C        -1.50120000000004    1.39559999999989   -2.96669999999991
H        -1.75370000000000    2.21460000000007   -3.64850000000001
H        -2.03199999999994    0.49450000000005   -3.28930000000001
H        -1.85170000000000    1.65210000000001   -1.96219999999998
C         0.84229999999999    2.20670000000000   -2.22039999999991
O         0.75200000000001    1.78260000000002   -0.83689999999999
C         2.32930000000002    2.18620000000004   -2.59899999999995
H         2.74129999999996    1.18499999999997   -2.45750000000001
H         2.48870000000000    2.51299999999999   -3.63179999999998
H         2.87200000000000    2.86269999999999   -1.93200000000000
C         0.28439999999999    3.62289999999991   -2.33659999999980
H        -0.72650000000000    3.69040000000000   -1.92910000000000
H         0.92129999999995    4.31480000000007   -1.77609999999996
H         0.26430000000000    3.94809999999998   -3.38320000000004
B         1.56300000000000    0.60960000000001    1.84839999999998
O         2.92779999999998    0.55230000000007    2.15020000000001
C         3.36329999999997    1.88659999999996    2.50260000000009
C         4.53140000000004    1.78590000000006    3.47740000000000
H         4.27910000000000    1.16090000000000    4.33690000000005
H         5.39390000000000    1.33790000000002    2.97340000000004
H         4.82389999999997    2.77869999999997    3.83820000000002
C         3.79699999999999    2.56850000000001    1.19670000000007
H         4.20020000000000    3.57089999999998    1.37679999999999
H         4.56740000000000    1.95560000000000    0.72109999999997
H         2.95240000000003    2.63260000000000    0.50539999999999
C         2.05039999999998    2.50089999999994    3.09320000000000
O         1.03750000000002    1.81619999999996    2.31909999999998
C         1.89099999999995    4.00450000000006    2.88649999999999
H         1.87289999999999    4.25439999999999    1.82410000000010
H         0.94939999999999    4.34259999999999    3.33169999999998
H         2.71079999999999    4.55149999999996    3.36629999999999
C         1.82469999999995    2.13200000000010    4.56520000000008
H         1.92610000000001    1.05330000000002    4.71319999999999
H         2.52609999999999    2.65280000000002    5.22539999999995
H         0.80629999999998    2.41579999999998    4.84900000000000
B         2.27820000000000   -1.33090000000001    0.17410000000002
O         2.89459999999998   -2.57739999999999    0.38450000000002
C         4.26930000000009   -2.48200000000000   -0.07209999999995
C         5.10900000000001   -2.05379999999990    1.14010000000009
H         4.76350000000000   -1.08739999999995    1.51750000000001
H         4.98050000000000   -2.79469999999998    1.93589999999998
H         6.17420000000001   -1.99290000000000    0.89300000000000
C         4.71949999999995   -3.84659999999999   -0.58469999999990
H         4.75280000000000   -4.56130000000004    0.24419999999996
H         5.72330000000006   -3.78370000000000   -1.02009999999997
H         4.03500000000002   -4.23599999999995   -1.34170000000004
C         4.16440000000000   -1.36220000000000   -1.16299999999998
O         3.08520000000004   -0.55029999999999   -0.65400000000000
C         5.40720000000000   -0.48870000000000   -1.31550000000002
H         6.27320000000000   -1.09009999999998   -1.61529999999999
H         5.23299999999999    0.26929999999999   -2.08590000000000
H         5.64269999999999    0.02649999999999   -0.38239999999998
C         3.71799999999993   -1.89830000000009   -2.53109999999987
H         2.82529999999994   -2.52160000000005   -2.42739999999999
H         3.46090000000000   -1.05250000000003   -3.17550000000005
H         4.50569999999992   -2.48289999999995   -3.01790000000002
H        -3.38499999999998   -4.00129999999999   -2.59310000000006
H        -5.21400000000001    1.52079999999999    1.29960000000000
C         0.23589999999992   -1.68140000000000    2.96030000000002
C        -0.99248771952614   -2.17803242929331    3.39269269311883
C         1.24647138373276   -1.64540693860880    3.92002456381653
C        -1.15988771483145   -2.58900309971614    4.70865404684542
H        -1.82610079933328   -2.27593058756119    2.70708599008480
N         1.10977801297339   -2.04571525738096    5.18018982078796
H         2.24015759677080   -1.30374122597729    3.65574809932777
C        -0.07204857155560   -2.53484064328060    5.57138257825689
H        -2.10757505387772   -2.98603366012471    5.04882702939678
C        -0.10650143640717   -3.13618249311728    6.95448000804297
N         0.11882072565243   -4.56559567824405    6.86613975720807
H        -1.07470304498419   -2.96903708153385    7.43391829412284
H         0.69049595480558   -2.68504240936937    7.55427895822285
C        -0.80507999103697   -5.54374975165289    7.07479854780056
C         1.28788493151078   -5.14553571473101    6.47525580130043
C        -0.21892504592091   -6.75949724758638    6.83245768807448
H        -1.80511242068953   -5.30806288702604    7.39449472505223
C         1.11367354016693   -6.50467821453882    6.44801335732995
H         2.14725607575071   -4.54370909858868    6.23777620757319
H        -0.68823982481731   -7.72419451757608    6.92121850591633
H         1.85604356099308   -7.23889274622998    6.18508174563411
