108
 energy: -154.744807289809 gnorm: 0.000476893482 xtb: 6.4.0 (f63f532)
N        -0.96510000000000   -2.11530000000001   -0.24090000000000
C        -2.24699999999999   -1.69839999999999   -0.36220000000001
C        -3.14040000000000   -2.36820000000000   -1.21200000000000
C        -2.70220000000000   -3.47560000000001   -1.93050000000000
C        -1.37779999999998   -3.89880000000000   -1.78760000000000
C        -0.54290000000000   -3.18670000000000   -0.93509999999999
H         0.49810000000000   -3.45630000000000   -0.78940000000000
H        -0.99570000000000   -4.76029999999999   -2.32770000000000
H        -4.16500000000000   -2.02890000000000   -1.31830000000000
C        -2.62130000000001   -0.50950000000001    0.44099999999999
N        -1.62600000000000    0.07330000000001    1.16020000000000
C        -1.89680000000000    1.15240000000000    1.91690000000000
C        -3.17230000000002    1.70329999999999    1.99650000000000
C        -4.20510000000000    1.11740000000000    1.26269999999999
C        -3.92610000000002    0.00249999999999    0.47819999999998
H        -4.71959999999999   -0.46420000000000   -0.09520000000000
H        -3.34630000000000    2.57510000000000    2.62070000000000
H        -1.04450000000001    1.57420000000000    2.43690000000000
Ir        0.42150000000000   -0.81650000000000    0.91330000000000
H         0.87260000000000   -2.23030000000000    1.54050000000000
B         0.50670000000000    0.41560000000000   -0.81540000000000
O         0.19500000000000   -0.04700000000000   -2.09150000000000
C         0.00650000000000    1.10040000000000   -2.95430000000000
C         0.49020000000004    0.74740000000000   -4.35779999999999
H         1.51609999999998    0.37380000000000   -4.33700000000000
H         0.44730000000000    1.62240000000000   -5.01670000000000
H        -0.14740000000000   -0.03390000000000   -4.78430000000000
C        -1.50120000000000    1.39560000000001   -2.96670000000001
H        -1.75370000000000    2.21460000000000   -3.64850000000000
H        -2.03200000000001    0.49450000000000   -3.28930000000000
H        -1.85170000000000    1.65210000000000   -1.96220000000000
C         0.84230000000000    2.20670000000000   -2.22040000000001
O         0.75200000000000    1.78260000000000   -0.83690000000000
C         2.32930000000001    2.18620000000000   -2.59900000000000
H         2.74130000000000    1.18500000000000   -2.45750000000000
H         2.48870000000000    2.51300000000000   -3.63180000000000
H         2.87200000000000    2.86270000000000   -1.93200000000000
C         0.28440000000001    3.62290000000000   -2.33660000000000
H        -0.72650000000000    3.69040000000000   -1.92910000000000
H         0.92130000000000    4.31480000000000   -1.77610000000000
H         0.26430000000000    3.94810000000000   -3.38320000000000
B         1.56300000000000    0.60960000000000    1.84840000000000
O         2.92780000000000    0.55230000000000    2.15020000000000
C         3.36330000000000    1.88660000000000    2.50259999999999
C         4.53140000000000    1.78590000000000    3.47740000000000
H         4.27910000000000    1.16090000000000    4.33690000000000
H         5.39390000000000    1.33790000000000    2.97340000000000
H         4.82390000000000    2.77870000000000    3.83820000000000
C         3.79700000000001    2.56850000000000    1.19670000000000
H         4.20020000000000    3.57090000000000    1.37680000000000
H         4.56740000000000    1.95560000000000    0.72110000000001
H         2.95240000000000    2.63260000000000    0.50540000000000
C         2.05039999999999    2.50090000000000    3.09320000000000
O         1.03750000000000    1.81620000000000    2.31910000000000
C         1.89100000000000    4.00450000000000    2.88650000000000
H         1.87290000000000    4.25440000000000    1.82410000000000
H         0.94939999999999    4.34260000000000    3.33170000000000
H         2.71080000000000    4.55150000000000    3.36630000000000
C         1.82469999999999    2.13200000000000    4.56520000000000
H         1.92610000000000    1.05330000000000    4.71320000000000
H         2.52610000000000    2.65280000000000    5.22540000000000
H         0.80630000000000    2.41580000000000    4.84900000000000
B         2.27820000000000   -1.33090000000000    0.17410000000000
O         2.89460000000002   -2.57740000000000    0.38450000000000
C         4.26930000000000   -2.48200000000000   -0.07210000000001
C         5.10900000000000   -2.05379999999999    1.14010000000000
H         4.76350000000000   -1.08740000000000    1.51750000000000
H         4.98050000000000   -2.79470000000000    1.93589999999999
H         6.17420000000000   -1.99290000000000    0.89300000000000
C         4.71949999999999   -3.84660000000000   -0.58469999999999
H         4.75280000000000   -4.56130000000000    0.24419999999999
H         5.72329999999999   -3.78370000000000   -1.02009999999999
H         4.03500000000000   -4.23600000000000   -1.34169999999999
C         4.16440000000000   -1.36220000000000   -1.16300000000000
O         3.08520000000001   -0.55030000000000   -0.65400000000000
C         5.40720000000000   -0.48870000000000   -1.31550000000000
H         6.27319999999999   -1.09010000000000   -1.61530000000000
H         5.23300000000000    0.26930000000000   -2.08589999999999
H         5.64270000000000    0.02650000000000   -0.38240000000001
C         3.71800000000000   -1.89829999999999   -2.53109999999999
H         2.82530000000000   -2.52160000000000   -2.42740000000000
H         3.46090000000000   -1.05250000000000   -3.17550000000000
H         4.50570000000001   -2.48290000000000   -3.01790000000000
H        -3.38499999999999   -4.00129999999999   -2.59310000000000
H        -5.21400000000000    1.52080000000000    1.29960000000000
C         0.23590000000000   -1.68140000000000    2.96030000000000
C        -0.99555945031922   -2.19763957584249    3.36239628764293
C         1.23622799051453   -1.69493922155415    3.93051552892122
C        -1.16660174013816   -2.69706220238346    4.64627471676747
H        -1.82845226912556   -2.25178411777266    2.67078426721685
N         1.10125887843797   -2.20250393245766    5.15191525723555
H         2.22648693006451   -1.31920419322470    3.70038899499254
C        -0.07416772718407   -2.73602356238380    5.50469090841686
H        -2.11957116597172   -3.10772747882289    4.95519734815891
C        -0.12252947897338   -3.45311771424323    6.83023265445982
C        -0.24405181241279   -2.52557014277416    8.01379034246932
H         0.81334720934912   -4.01245041258109    6.93306744708619
H        -0.95660380819119   -4.16076470870106    6.82824719155205
C        -1.25200321509689   -2.70422547333320    8.95731410973390
C         0.68184329244909   -1.50173516869049    8.20006788422493
C        -1.32693112114711   -1.88252979143185   10.07316553925586
H        -1.97763645160986   -3.49787006927978    8.82520338296725
C         0.60229931119620   -0.67656668768785    9.31175508434085
H         1.46061156745658   -1.36316674686148    7.46040500404478
C        -0.39812796419657   -0.86897636139724   10.25376080967595
H        -2.11010775532258   -2.03909570588662   10.80460361197036
H         1.32926530269418    0.11383961697002    9.44787601480804
H        -0.45313914280607   -0.23201319005053   11.12752731230453
