105
 energy: -150.739765347627 gnorm: 0.009542332876 xtb: 6.4.1 (1a32961)
N        -0.96510000000000   -2.11529999999999   -0.24089999999999
C        -2.24700000000000   -1.69839999999999   -0.36219999999998
C        -3.14039999999998   -2.36820000000004   -1.21200000000003
C        -2.70219999999998   -3.47560000000002   -1.93049999999999
C        -1.37779999999998   -3.89880000000001   -1.78760000000005
C        -0.54290000000002   -3.18669999999998   -0.93510000000000
H         0.49810000000000   -3.45630000000000   -0.78940000000000
H        -0.99570000000000   -4.76030000000000   -2.32769999999999
H        -4.16500000000000   -2.02890000000001   -1.31830000000000
C        -2.62130000000000   -0.50950000000000    0.44100000000000
N        -1.62600000000000    0.07330000000000    1.16020000000000
C        -1.89680000000000    1.15240000000000    1.91689999999999
C        -3.17230000000001    1.70330000000000    1.99650000000000
C        -4.20510000000000    1.11740000000000    1.26270000000000
C        -3.92610000000000    0.00250000000000    0.47820000000001
H        -4.71960000000000   -0.46420000000000   -0.09519999999999
H        -3.34630000000000    2.57510000000000    2.62070000000000
H        -1.04450000000000    1.57420000000000    2.43690000000000
Ir        0.42150000000000   -0.81650000000000    0.91330000000000
H         0.87260000000000   -2.23030000000000    1.54050000000000
B         0.50670000000000    0.41560000000000   -0.81540000000000
O         0.19500000000000   -0.04700000000001   -2.09149999999999
C         0.00649999999999    1.10040000000000   -2.95429999999999
C         0.49020000000000    0.74740000000000   -4.35779999999998
H         1.51610000000000    0.37380000000000   -4.33700000000000
H         0.44730000000000    1.62239999999997   -5.01670000000000
H        -0.14740000000002   -0.03390000000001   -4.78429999999999
C        -1.50120000000002    1.39560000000005   -2.96670000000001
H        -1.75370000000000    2.21460000000000   -3.64850000000000
H        -2.03199999999998    0.49449999999998   -3.28930000000000
H        -1.85170000000000    1.65210000000000   -1.96219999999999
C         0.84230000000000    2.20669999999998   -2.22040000000000
O         0.75200000000000    1.78259999999999   -0.83690000000001
C         2.32930000000000    2.18620000000000   -2.59899999999998
H         2.74129999999999    1.18499999999997   -2.45750000000000
H         2.48870000000000    2.51300000000000   -3.63180000000001
H         2.87199999999999    2.86269999999999   -1.93200000000000
C         0.28440000000000    3.62290000000000   -2.33659999999999
H        -0.72650000000001    3.69040000000000   -1.92910000000001
H         0.92130000000000    4.31480000000000   -1.77609999999999
H         0.26430000000000    3.94810000000000   -3.38320000000000
B         1.56300000000000    0.60960000000001    1.84840000000000
O         2.92780000000000    0.55229999999998    2.15020000000000
C         3.36330000000000    1.88660000000001    2.50259999999998
C         4.53139999999998    1.78590000000006    3.47739999999998
H         4.27910000000000    1.16089999999999    4.33690000000002
H         5.39390000000000    1.33790000000000    2.97340000000000
H         4.82390000000000    2.77870000000003    3.83820000000000
C         3.79700000000000    2.56850000000000    1.19669999999994
H         4.20020000000000    3.57089999999999    1.37680000000000
H         4.56740000000000    1.95560000000001    0.72110000000000
H         2.95239999999999    2.63260000000000    0.50539999999999
C         2.05040000000000    2.50089999999998    3.09319999999999
O         1.03750000000000    1.81619999999999    2.31910000000000
C         1.89099999999999    4.00450000000002    2.88650000000001
H         1.87290000000000    4.25440000000000    1.82410000000004
H         0.94940000000000    4.34260000000000    3.33170000000002
H         2.71079999999999    4.55149999999999    3.36630000000000
C         1.82470000000001    2.13199999999997    4.56519999999997
H         1.92610000000000    1.05329999999999    4.71320000000000
H         2.52610000000000    2.65280000000000    5.22540000000000
H         0.80630000000000    2.41580000000000    4.84900000000000
B         2.27819999999999   -1.33090000000000    0.17410000000000
O         2.89460000000000   -2.57740000000000    0.38450000000001
C         4.26930000000000   -2.48199999999999   -0.07210000000001
C         5.10900000000000   -2.05380000000000    1.14010000000000
H         4.76350000000000   -1.08740000000000    1.51750000000000
H         4.98050000000000   -2.79470000000000    1.93590000000000
H         6.17420000000000   -1.99290000000000    0.89300000000000
C         4.71950000000000   -3.84660000000000   -0.58470000000002
H         4.75280000000000   -4.56130000000000    0.24420000000001
H         5.72330000000000   -3.78370000000000   -1.02010000000001
H         4.03500000000002   -4.23600000000000   -1.34170000000001
C         4.16440000000000   -1.36220000000003   -1.16300000000000
O         3.08520000000000   -0.55029999999999   -0.65400000000000
C         5.40720000000000   -0.48869999999997   -1.31550000000000
H         6.27320000000001   -1.09009999999999   -1.61530000000000
H         5.23300000000000    0.26929999999999   -2.08590000000001
H         5.64270000000000    0.02650000000001   -0.38240000000000
C         3.71800000000000   -1.89829999999999   -2.53109999999997
H         2.82530000000000   -2.52160000000000   -2.42740000000000
H         3.46090000000000   -1.05249999999998   -3.17549999999999
H         4.50570000000000   -2.48289999999999   -3.01790000000000
H        -3.38499999999999   -4.00130000000000   -2.59310000000002
H        -5.21400000000000    1.52080000000000    1.29959999999999
C         0.23590000000002   -1.68139999999999    2.96030000000001
N        -0.85892245311421   -2.36499886110352    3.46404647933462
C         1.18093517894971   -1.62169971203468    3.99798322286306
C        -0.66732351310258   -2.70078324098887    4.77312925533839
H        -1.62787704621701   -2.70290109435629    2.91010347186934
C         0.56441319114257   -2.14349181024597    5.17543375144217
C         2.68274367026639   -1.51345829760249    4.00821433516582
N        -1.43523218309762   -3.48128078877288    5.53513828699095
C         0.91888191976907   -2.25348786718651    6.52356593367133
C         3.37393192525845   -0.96138255443020    5.25867937787531
H         3.01240642639365   -0.94922215121111    3.14192680524905
H         3.06566890444050   -2.52970557807833    3.86361907185491
C        -0.98903438434733   -3.68079822865886    6.77711716894867
C         0.12560507823184   -3.05494283919571    7.32619824505169
H         1.76325401784948   -1.73526875702922    6.95246087127758
H         4.35159643456556   -0.56253875982264    4.98513118819364
H         3.56328332887567   -1.73116264958234    6.00621044942821
H         2.81205546895312   -0.16272703709552    5.74264462626290
H        -1.56843983736005   -4.37673893636117    7.37309522092839
H         0.37949337883940   -3.19402000439886    8.36902114728229
