99
 energy: -144.445217066237 gnorm: 0.000182498050 xtb: 6.4.1 (1a32961)
N        -0.96331376377442   -2.03604277608271   -0.32817435279400
C        -2.22527588682402   -1.57790086350551   -0.44366407025511
C        -3.15889122689075   -2.23929203875553   -1.25430067593127
C        -2.78001422694088   -3.35541565282520   -1.96584194240127
C        -1.46506423255329   -3.80452484913117   -1.85219887327746
C        -0.60851080610046   -3.11497088205564   -1.02043414705299
H         0.41579589163382   -3.43417374308208   -0.88771400952727
H        -1.12397057261023   -4.67232628733451   -2.39295021022704
H        -4.17471684337522   -1.88527099916432   -1.31992932740001
C        -2.54424770920617   -0.37687868261532    0.31303919103956
N        -1.58258077091695    0.08350149518411    1.14553692419478
C        -1.83595938912789    1.17496873751481    1.86784029872159
C        -3.02297801050722    1.87269450956193    1.80372677111580
C        -4.01295407443100    1.42663423190570    0.92902950549400
C        -3.76519259925783    0.29708272359020    0.18082834179103
H        -4.51215665710586   -0.05711154982655   -0.51047520160916
H        -3.17597840120188    2.74414963449319    2.41978718257997
H        -1.03376972124279    1.48983904378338    2.51760198850291
Ir        0.42150000000016   -0.81650000000006    0.91329999999993
H         0.87259999999996   -2.23029999999999    1.54050000000017
B         0.35762873365750    0.63170422062402   -0.58468237239512
O        -0.19678430695391    0.30136704478324   -1.80696727619861
C        -0.32808209283081    1.47069525553343   -2.62259112997627
C         0.05585938247639    1.13366809251979   -4.06142439094296
H         1.02837497886114    0.65404472740557   -4.09479211714782
H         0.06946290286537    2.03569809771931   -4.66780307539669
H        -0.67681282050014    0.44351882498751   -4.47301005173715
C        -1.80471356144040    1.89016437520269   -2.57898366586075
H        -1.98761970311990    2.74794955105107   -3.21953507014179
H        -2.41422047055938    1.05585529979999   -2.92088326192161
H        -2.09846907132080    2.12536191987559   -1.55791475256061
C         0.61471095780651    2.49294527749651   -1.90607166843182
O         0.68749478159557    1.96882512174968   -0.57295379655624
C         2.04171598968531    2.46546058027730   -2.46698830581029
H         2.42787462109276    1.45100913665734   -2.40097394461349
H         2.07257312661294    2.82352873209221   -3.49196087669025
H         2.67078657216815    3.10184520101141   -1.84941685038719
C         0.10464007590980    3.93223330400216   -1.87456274501728
H        -0.82603899346829    4.00896787665832   -1.32088805308008
H         0.84369213950277    4.56013739955263   -1.38299869281194
H        -0.04523177179160    4.29550707219917   -2.88809920219851
B         1.60897579831665    0.61649353186288    1.86286752546723
O         2.95889977876283    0.83627684264225    1.73514708747766
C         3.31759050568732    2.06417798919037    2.38586729585654
C         4.68352573141457    1.92317847844339    3.05472516184199
H         4.72120243111336    1.03487244375592    3.67581759971286
H         5.44921058498136    1.83452328406153    2.28815367585873
H         4.89466141514716    2.80184483012503    3.65848408124343
C         3.38763764023264    3.13770960248211    1.29339928372960
H         3.65457166468030    4.10717606754823    1.70408693918113
H         4.13783780880318    2.83988708780151    0.56448787347241
H         2.42855812988634    3.18705093125434    0.78389143046816
C         2.12053443028810    2.28394809527327    3.36726231806850
O         1.07037833560481    1.52746067978398    2.74858405179061
C         1.67972742894215    3.73570006764560    3.53742019431822
H         1.31577448862837    4.14029600104192    2.59895143740057
H         0.87296237915213    3.78054961111428    4.26496282059704
H         2.51023167346442    4.33765399800273    3.89692772091485
C         2.36953970296920    1.65193148972178    4.74157898022784
H         2.64295934602145    0.60998459340776    4.60085139779386
H         3.14399002884318    2.18302371765611    5.28648355292671
H         1.44461867438090    1.68306279004279    5.31316719532165
B         2.27820000000008   -1.33090000000021    0.17410000000014
O         3.09737893304462   -2.34026562035301    0.62831415395128
C         4.38446068662693   -2.25631342349456    0.00248417048515
C         5.32250052079398   -1.60589131961049    1.02482915499591
H         4.90107610945298   -0.65191877960165    1.32798474537623
H         5.37052709625398   -2.24661646032058    1.90153712826288
H         6.32279786319376   -1.47622458953430    0.62340230907771
C         4.88455434570280   -3.66372631341586   -0.32317457674883
H         5.01773850452435   -4.21041969467599    0.60654209379650
H         5.83768977167599   -3.61108193633990   -0.84184118881754
H         4.16978208032393   -4.20648667131696   -0.93265904178187
C         4.10764838045429   -1.34331641507624   -1.24442180785523
O         2.85936593744143   -0.71821244825446   -0.91289813552343
C         5.15585656228248   -0.25847719103701   -1.48843780283453
H         6.13602389804537   -0.70332507212008   -1.63581373512938
H         4.88624203925947    0.30185398667464   -2.38028346576431
H         5.18232719144366    0.42993733553127   -0.65113760344241
C         3.89043359722335   -2.13333710302864   -2.54230668801887
H         3.10750984229498   -2.87399641029953   -2.40480477579600
H         3.56497928724346   -1.44396311212516   -3.31779910872007
H         4.80718413312796   -2.61874276950013   -2.86302014618703
H        -3.48766188083680   -3.87219168994113   -2.59639126097364
H        -4.95084277211731    1.95345440682451    0.83748224522750
C         0.23590000000054   -1.68140000000010    2.96029999999904
C        -1.07309860451693   -2.08317626212167    3.29871310895284
N         1.17908670863514   -1.52132856023411    3.87106497106752
C        -1.45059131515126   -2.23738952665586    4.61611720715131
H        -1.79459394106982   -2.27619393746355    2.51823653645350
C         0.82003307836825   -1.68485404374690    5.13799898917817
C        -0.47986656465652   -2.02855773803121    5.59533531495060
H        -2.45978847377716   -2.52706689780063    4.87873723058666
N         1.62646485118544   -1.57062370218075    6.22694885136168
C        -0.40235255545788   -2.10579850351043    7.01297574106495
C         0.88706506528616   -1.82530162391216    7.35168453539785
H         2.60852634272516   -1.35709364277821    6.20136900858405
H        -1.20483883848987   -2.34430238770562    7.68317690807636
H         1.34059588262448   -1.78647558499264    8.32310957825542
