105
 energy: -152.493580047504 gnorm: 0.000797321710 xtb: 6.4.1 (1a32961)
N        -0.96510000000000   -2.11530000000001   -0.24090000000000
C        -2.24700000000000   -1.69839999999999   -0.36220000000001
C        -3.14040000000001   -2.36820000000000   -1.21199999999998
C        -2.70220000000000   -3.47560000000002   -1.93050000000000
C        -1.37780000000002   -3.89880000000000   -1.78760000000002
C        -0.54290000000002   -3.18670000000002   -0.93509999999999
H         0.49810000000000   -3.45630000000000   -0.78940000000000
H        -0.99570000000000   -4.76030000000000   -2.32770000000001
H        -4.16500000000000   -2.02890000000000   -1.31830000000000
C        -2.62130000000000   -0.50950000000002    0.44099999999998
N        -1.62600000000000    0.07329999999999    1.16019999999999
C        -1.89680000000000    1.15240000000000    1.91689999999999
C        -3.17230000000000    1.70330000000001    1.99649999999999
C        -4.20510000000000    1.11740000000000    1.26270000000002
C        -3.92610000000000    0.00250000000000    0.47820000000001
H        -4.71960000000000   -0.46420000000000   -0.09520000000000
H        -3.34630000000000    2.57509999999999    2.62070000000000
H        -1.04450000000000    1.57420000000000    2.43690000000000
Ir        0.42150000000000   -0.81650000000000    0.91330000000000
H         0.87260000000000   -2.23030000000000    1.54050000000000
B         0.50670000000000    0.41560000000000   -0.81540000000000
O         0.19500000000000   -0.04700000000001   -2.09150000000000
C         0.00650000000001    1.10040000000001   -2.95430000000001
C         0.49019999999998    0.74740000000001   -4.35780000000000
H         1.51609999999999    0.37380000000000   -4.33700000000000
H         0.44730000000000    1.62240000000000   -5.01669999999999
H        -0.14740000000001   -0.03389999999999   -4.78430000000000
C        -1.50120000000000    1.39560000000000   -2.96670000000000
H        -1.75370000000000    2.21460000000000   -3.64850000000000
H        -2.03200000000000    0.49450000000000   -3.28930000000000
H        -1.85169999999999    1.65210000000000   -1.96220000000000
C         0.84229999999999    2.20670000000001   -2.22039999999999
O         0.75200000000000    1.78260000000000   -0.83690000000000
C         2.32930000000001    2.18619999999999   -2.59900000000000
H         2.74129999999999    1.18500000000000   -2.45750000000000
H         2.48870000000000    2.51300000000000   -3.63180000000001
H         2.87200000000001    2.86270000000000   -1.93200000000000
C         0.28439999999999    3.62290000000001   -2.33659999999999
H        -0.72650000000001    3.69040000000000   -1.92910000000000
H         0.92130000000000    4.31480000000001   -1.77610000000000
H         0.26430000000000    3.94810000000000   -3.38320000000000
B         1.56300000000001    0.60960000000000    1.84840000000000
O         2.92780000000000    0.55230000000000    2.15020000000000
C         3.36330000000000    1.88660000000001    2.50260000000000
C         4.53139999999999    1.78590000000001    3.47740000000000
H         4.27910000000000    1.16090000000000    4.33689999999999
H         5.39390000000000    1.33790000000000    2.97340000000000
H         4.82390000000000    2.77870000000000    3.83820000000000
C         3.79700000000000    2.56850000000000    1.19670000000000
H         4.20020000000000    3.57090000000000    1.37680000000000
H         4.56740000000000    1.95560000000000    0.72109999999999
H         2.95240000000000    2.63260000000000    0.50540000000000
C         2.05040000000000    2.50090000000000    3.09319999999999
O         1.03750000000001    1.81620000000000    2.31910000000000
C         1.89100000000000    4.00450000000000    2.88650000000000
H         1.87290000000000    4.25440000000000    1.82410000000001
H         0.94940000000000    4.34260000000000    3.33170000000000
H         2.71080000000000    4.55150000000000    3.36630000000000
C         1.82470000000001    2.13200000000000    4.56519999999999
H         1.92610000000000    1.05329999999999    4.71320000000000
H         2.52610000000001    2.65280000000000    5.22540000000000
H         0.80630000000000    2.41580000000000    4.84900000000000
B         2.27820000000000   -1.33090000000000    0.17410000000000
O         2.89460000000000   -2.57740000000000    0.38450000000000
C         4.26930000000000   -2.48200000000000   -0.07210000000002
C         5.10900000000000   -2.05380000000000    1.14009999999999
H         4.76350000000000   -1.08740000000000    1.51750000000000
H         4.98050000000000   -2.79470000000000    1.93590000000000
H         6.17420000000000   -1.99290000000000    0.89300000000000
C         4.71950000000000   -3.84660000000000   -0.58469999999999
H         4.75280000000000   -4.56130000000000    0.24419999999999
H         5.72330000000000   -3.78370000000000   -1.02010000000000
H         4.03499999999999   -4.23600000000000   -1.34170000000000
C         4.16440000000000   -1.36220000000000   -1.16300000000000
O         3.08520000000000   -0.55030000000000   -0.65400000000000
C         5.40720000000000   -0.48870000000001   -1.31550000000000
H         6.27320000000001   -1.09010000000000   -1.61530000000000
H         5.23300000000000    0.26930000000000   -2.08590000000000
H         5.64270000000000    0.02650000000000   -0.38240000000001
C         3.71799999999999   -1.89830000000000   -2.53110000000000
H         2.82529999999999   -2.52160000000000   -2.42740000000000
H         3.46090000000000   -1.05250000000000   -3.17550000000000
H         4.50570000000002   -2.48289999999999   -3.01790000000000
H        -3.38500000000001   -4.00130000000001   -2.59309999999999
H        -5.21400000000000    1.52080000000000    1.29960000000001
C         0.23589999999999   -1.68140000000000    2.96030000000000
C        -0.98214962076324   -1.88589763911094    3.53729134623833
C         1.26963176261069   -1.77084731105980    3.93710583603829
S        -0.90310344725149   -2.14003107419288    5.23897763561410
H        -1.95829367761597   -1.90845804689479    3.08566196443080
C         0.82362448415899   -2.01810801575831    5.20690538718707
H         2.31580565529532   -1.66141771303148    3.69272744006968
C         1.66889350427684   -2.36458742056610    6.40118837117969
S         3.06122749218720   -1.21065103118022    6.68234183948124
S         0.73447391515492   -2.71049723417115    7.92635055127051
H         2.18167387757262   -3.31248758669324    6.20382546752541
C         2.21769305669795    0.20116826409948    7.45983137656104
C         0.28020712107145   -1.03352694239226    8.46415058848141
C         1.50183044275861   -0.17119265309381    8.74822967136488
H         1.51354694914968    0.61950581570739    6.73943325178566
H         3.01871780626878    0.92008283377695    7.64397681188789
H        -0.35244207246180   -0.58770790834001    7.69385661657711
H        -0.31024225370712   -1.19202586145990    9.36877287673301
H         1.17771456922037    0.74995570609273    9.24406898894796
H         2.18546912471712   -0.70347563049024    9.41578906241420
