105
 energy: -152.507641045705 gnorm: 0.000295364710 xtb: 6.4.1 (1a32961)
N        -0.93827920487813   -2.02948906636940   -0.33664589118706
C        -2.19903652262706   -1.57183485310911   -0.45278110036896
C        -3.10191124127254   -2.16972795858776   -1.34106744910834
C        -2.70001757446341   -3.23732674719818   -2.11360333757166
C        -1.39165794803287   -3.69676356226738   -1.98542677441011
C        -0.56037781943075   -3.05957745473411   -1.08837896514056
H         0.46211423502086   -3.38271803298373   -0.95246686675623
H        -1.03340772780950   -4.52972662468120   -2.56800647046000
H        -4.11056796425366   -1.80156132515348   -1.42994281155332
C        -2.55271305604737   -0.43455628158496    0.38823967828109
N        -1.57679396213984    0.05580392637851    1.18124795959487
C        -1.85619549058427    1.08809840590538    1.97411549990062
C        -3.09556077819744    1.69221256385624    2.03173125030053
C        -4.11011442823967    1.20540511363255    1.21202367229393
C        -3.83098074025156    0.13775611993333    0.38646160248002
H        -4.60396988197255   -0.25111054412733   -0.25519261113867
H        -3.26701156346238    2.52054366016915    2.69990328220840
H        -1.03272054169567    1.44162480587520    2.57541484339754
Ir        0.42150000000000   -0.81649999999965    0.91330000000081
H         0.87260000000003   -2.23029999999985    1.54049999999979
B         0.39985546579909    0.58783889385075   -0.63378662825169
O        -0.38712108063182    0.35005009119129   -1.74811781837067
C        -0.48135045640544    1.53828187157802   -2.54107592549953
C        -0.43952966530912    1.17530292509099   -4.02318543662445
H         0.41438557726828    0.54252497283553   -4.24156849457855
H        -0.38975963534932    2.07763142182938   -4.62713434646168
H        -1.34289936359003    0.62818180241135   -4.28265024997671
C        -1.83544602028828    2.18596374876125   -2.21631390543707
H        -2.00154329641261    3.07390995735449   -2.81899297792509
H        -2.62454677821527    1.46497480782573   -2.42185105447746
H        -1.88222575437835    2.44387850729377   -1.16007588832458
C         0.73052513409155    2.38393498812311   -2.02979791275155
O         0.95451780634477    1.84229827464285   -0.72061874091606
C         2.00715511341347    2.12733104769006   -2.83946906469141
H         2.21946052849501    1.06090223124939   -2.84211656312052
H         1.91464764208022    2.50166821831946   -3.85487656265489
H         2.83837303731406    2.62942679464354   -2.34982734853205
C         0.47689752454060    3.88702537880265   -1.93502577064355
H        -0.29852606030638    4.10981410356149   -1.20850918955222
H         1.39104545155311    4.38333638574668   -1.61781701631294
H         0.18659979708235    4.27774935514089   -2.90698896900076
B         1.60492045153024    0.65490666984161    1.82125097513482
O         2.97514581129717    0.74147974768801    1.83059736348964
C         3.39149667971168    2.04672506665884    2.25399435346128
C         4.60756243125212    1.92814230599032    3.17228298167902
H         4.41303352248710    1.25017416835074    3.99678672405257
H         5.44591056036870    1.53391927194103    2.60352742501395
H         4.87879485070411    2.90571537434205    3.56142772359629
C         3.78371569398866    2.81040892295523    0.98316635621067
H         4.08586547908112    3.82935086007754    1.20576489589507
H         4.61490349291438    2.29226767938854    0.51007276334133
H         2.94546442503445    2.79954727797811    0.29164406539977
C         2.10131806557007    2.61833634137897    2.93853549338251
O         1.06548986917474    1.75770869858822    2.44503645323025
C         1.76343187070762    4.06115538000551    2.56516469990968
H         1.55737739113102    4.13783423190889    1.50266024874876
H         0.87417662512935    4.37145656960463    3.10859118832134
H         2.58406638390977    4.72150240937835    2.83123956555520
C         2.11580713727787    2.48039768477119    4.46493627320763
H         2.31273512004250    1.44971107783316    4.74708058684913
H         2.86470340345121    3.12891836385143    4.90869083664727
H         1.13687692777026    2.75812057030538    4.84945955789516
B         2.27820000000444   -1.33089999999778    0.17409999999805
O         3.15007924950520   -2.23477487031309    0.74218825289513
C         4.39271445934713   -2.25242562112889    0.02759230904012
C         5.39442798363876   -1.45018462694787    0.86452630601703
H         4.98005972034613   -0.46559773187658    1.05962045285191
H         5.52582410155160   -1.95121433256015    1.82029395592118
H         6.35749118321754   -1.37302008971533    0.36953711671308
C         4.88237114819415   -3.69543254450210   -0.09971876246753
H         5.08451506761742   -4.08406783498135    0.89493949091522
H         5.79716951961289   -3.73016563614556   -0.68463817979908
H         4.13261512782861   -4.32964072803202   -0.56083535812278
C         4.02418971382386   -1.55389707244061   -1.32967339518174
O         2.78829446698854   -0.88955209736306   -1.02543773379374
C         5.03888186213902   -0.52103870077586   -1.81712720445304
H         6.00891453407979   -0.98577777243791   -1.97017793978881
H         4.69549225227113   -0.10477118132254   -2.76083410602429
H         5.12702061634357    0.28981179128853   -1.10257015268007
C         3.73691283589360   -2.54594283915451   -2.46521253424661
H         2.98229288136970   -3.26415282023000   -2.15654565215229
H         3.34627416725480   -1.99540935617608   -3.31772655948360
H         4.64037346692638   -3.06785207515722   -2.76522124647968
H        -3.38525247134365   -3.70487799442062   -2.80411326433545
H        -5.09296008870720    1.65148636719356    1.22089072010703
C         0.23590000000014   -1.68139999999745    2.96029999999474
C        -0.97831562218711   -2.02693562285236    3.45651499034562
C         1.22314212883124   -1.66208026721929    3.98490085278033
S        -0.96094710399889   -2.28103008908489    5.17300918971775
H        -1.91483095569344   -2.16610565439800    2.95314453913450
C         0.74535594538805   -1.95900845514561    5.22446976392217
H         2.25744099350597   -1.44183269026497    3.78845316245901
C         1.55623102476229   -2.09347723088862    6.46228842326128
S         2.48727446880813   -0.55922617295193    6.84027250497539
S         0.66681242590047   -2.70837021184363    7.92866127082054
H         2.34522290979636   -2.83678106962254    6.30942275184281
C         1.08969294397469    0.50245012612563    7.33736393920168
C        -0.38147087438888   -1.27323963814388    8.35825206990033
C         0.41874421857302   -0.00522764860826    8.60403923719207
H         0.39212216089013    0.54298255027053    6.49920866091742
H         1.53057254675182    1.48532573691094    7.49208706377792
H        -1.10889100330726   -1.13548853180878    7.55837825956882
H        -0.89703212876525   -1.59237667241313    9.26285315426452
H        -0.26447063945044    0.76450662814576    8.97154933601843
H         1.17754145151343   -0.18817090737855    9.36778235084814
