111
 energy: -159.026268783753 gnorm: 0.000695213653 xtb: 6.4.1 (1a32961)
N        -0.96510000000002   -2.11530000000004   -0.24089999999995
C        -2.24699999999995   -1.69840000000003   -0.36219999999988
C        -3.14040000000004   -2.36819999999996   -1.21199999999999
C        -2.70220000000002   -3.47559999999990   -1.93049999999999
C        -1.37779999999997   -3.89879999999998   -1.78760000000001
C        -0.54290000000002   -3.18669999999997   -0.93510000000000
H         0.49810000000000   -3.45630000000000   -0.78940000000000
H        -0.99570000000000   -4.76030000000008   -2.32770000000004
H        -4.16500000000000   -2.02890000000000   -1.31830000000000
C        -2.62130000000004   -0.50950000000003    0.44100000000007
N        -1.62600000000001    0.07329999999996    1.16019999999999
C        -1.89680000000001    1.15240000000001    1.91690000000000
C        -3.17229999999999    1.70330000000000    1.99649999999996
C        -4.20509999999998    1.11740000000003    1.26269999999996
C        -3.92609999999996    0.00250000000001    0.47820000000003
H        -4.71960000000002   -0.46419999999995   -0.09520000000002
H        -3.34630000000000    2.57510000000001    2.62070000000000
H        -1.04450000000000    1.57420000000000    2.43690000000000
Ir        0.42150000000000   -0.81650000000000    0.91330000000000
H         0.87260000000000   -2.23030000000000    1.54050000000000
B         0.50669999999998    0.41560000000006   -0.81540000000003
O         0.19500000000000   -0.04699999999994   -2.09149999999999
C         0.00649999999996    1.10039999999993   -2.95430000000000
C         0.49020000000004    0.74739999999990   -4.35779999999995
H         1.51609999999995    0.37380000000002   -4.33700000000000
H         0.44729999999999    1.62239999999998   -5.01670000000004
H        -0.14739999999993   -0.03389999999993   -4.78429999999999
C        -1.50120000000007    1.39560000000014   -2.96670000000004
H        -1.75370000000000    2.21459999999996   -3.64850000000004
H        -2.03200000000001    0.49449999999990   -3.28930000000001
H        -1.85170000000001    1.65210000000000   -1.96220000000001
C         0.84229999999993    2.20670000000005   -2.22040000000001
O         0.75200000000001    1.78260000000004   -0.83690000000003
C         2.32930000000007    2.18620000000009   -2.59899999999994
H         2.74130000000000    1.18500000000003   -2.45749999999998
H         2.48869999999999    2.51300000000000   -3.63180000000008
H         2.87200000000001    2.86270000000001   -1.93200000000005
C         0.28439999999995    3.62290000000011   -2.33660000000013
H        -0.72650000000001    3.69040000000000   -1.92910000000000
H         0.92129999999998    4.31480000000000   -1.77610000000000
H         0.26430000000000    3.94809999999999   -3.38319999999996
B         1.56299999999998    0.60959999999998    1.84839999999999
O         2.92780000000002    0.55229999999995    2.15020000000001
C         3.36330000000001    1.88660000000002    2.50259999999988
C         4.53139999999998    1.78590000000000    3.47739999999991
H         4.27910000000002    1.16089999999999    4.33689999999998
H         5.39390000000002    1.33789999999999    2.97339999999994
H         4.82390000000001    2.77869999999999    3.83819999999999
C         3.79700000000009    2.56850000000001    1.19669999999999
H         4.20020000000000    3.57090000000000    1.37680000000000
H         4.56739999999999    1.95560000000003    0.72110000000000
H         2.95239999999999    2.63260000000001    0.50540000000002
C         2.05039999999997    2.50090000000006    3.09320000000009
O         1.03750000000006    1.81620000000002    2.31909999999997
C         1.89100000000001    4.00449999999998    2.88650000000000
H         1.87290000000000    4.25440000000000    1.82410000000014
H         0.94939999999997    4.34259999999999    3.33169999999999
H         2.71079999999997    4.55150000000000    3.36629999999998
C         1.82469999999996    2.13200000000000    4.56520000000005
H         1.92610000000000    1.05329999999991    4.71319999999995
H         2.52610000000003    2.65279999999997    5.22539999999999
H         0.80629999999998    2.41580000000000    4.84900000000001
B         2.27820000000000   -1.33090000000002    0.17410000000001
O         2.89459999999999   -2.57740000000000    0.38450000000001
C         4.26929999999999   -2.48199999999999   -0.07210000000004
C         5.10900000000000   -2.05379999999999    1.14010000000000
H         4.76349999999999   -1.08739999999997    1.51750000000000
H         4.98050000000000   -2.79470000000002    1.93589999999997
H         6.17419999999999   -1.99290000000001    0.89300000000000
C         4.71950000000004   -3.84659999999998   -0.58469999999991
H         4.75280000000000   -4.56129999999998    0.24419999999999
H         5.72330000000002   -3.78370000000000   -1.02010000000002
H         4.03500000000002   -4.23600000000000   -1.34169999999999
C         4.16440000000000   -1.36220000000001   -1.16300000000002
O         3.08519999999996   -0.55030000000000   -0.65399999999998
C         5.40720000000002   -0.48870000000002   -1.31550000000007
H         6.27319999999999   -1.09010000000001   -1.61530000000002
H         5.23300000000000    0.26930000000003   -2.08590000000001
H         5.64269999999999    0.02650000000002   -0.38239999999996
C         3.71800000000000   -1.89830000000005   -2.53110000000001
H         2.82530000000001   -2.52159999999999   -2.42740000000001
H         3.46090000000000   -1.05249999999998   -3.17550000000002
H         4.50570000000001   -2.48289999999999   -3.01790000000000
H        -3.38499999999997   -4.00130000000005   -2.59309999999995
H        -5.21399999999999    1.52079999999999    1.29960000000001
C         0.23590000000009   -1.68140000000000    2.96030000000003
C        -1.01866245805261   -2.09483042123091    3.40066228800681
C         1.20752929323179   -1.50721633702259    3.94673174494262
C        -1.28340582930443   -2.21982061757571    4.76596758904265
H        -1.82341751857660   -2.32733368113106    2.71453772530212
C         0.85758897634561   -1.62712243109743    5.27963674846685
H         2.22453832146909   -1.26826648264461    3.66982444108479
C        -2.66347661424864   -2.65474403102823    5.15683782327506
N        -0.36233084000656   -1.95745535451438    5.69866979685721
H         1.57573290765041   -1.45775583657259    6.07467822754872
O        -3.57137875686567   -2.57464276869886    4.32380320825574
N        -2.90202951012711   -3.17376537606939    6.39704451874923
C        -1.94561110678037   -3.29996026660352    7.48720904292541
C        -4.25535377750962   -3.62795908603817    6.69784747216601
C        -1.89950223885965   -2.04413787234832    8.35018375061348
H        -0.95616970636087   -3.49234664996722    7.07738986090615
H        -2.25620497926658   -4.15720165800296    8.09167767762054
C        -4.39798490066638   -5.13436911266444    6.51592724800693
H        -4.93906874250582   -3.10907927566738    6.01983145842958
H        -4.49020652271352   -3.34440811290763    7.72728153970232
H        -1.52726212098118   -1.21011983671674    7.75769077441433
H        -1.22867819402867   -2.20283467094106    9.19385529647395
H        -2.89013748809455   -1.79510692918797    8.73134233331161
H        -4.19450630209760   -5.40428177172148    5.47968487911173
H        -5.41272020706575   -5.44283406382982    6.76592384797278
H        -3.70146435248848   -5.67418752797644    7.15792562784669
