17
 energy: -27.203598031762 gnorm: 0.000232950321 xtb: 6.4.1 (1a32961)
O        -0.02920971821022    1.00362385214349    0.01075638760434
C         0.68472808676279   -0.13120434260444    0.00029218209028
C         2.16691921094924   -0.03787923274617   -0.00126152856778
C        -0.15556582797260   -1.21875020884808   -0.00589494553682
C        -1.46295737025827   -0.70874262985427    0.00066894400458
C        -1.34849879780550    0.66716067473130    0.01123732645861
C        -2.38181468207176    1.68608283533713    0.02302033904531
O        -3.56629275723247    1.38189085807026    0.02265399419423
C        -1.91853384821964    3.11949961760043    0.03409894112536
H         2.46445207104693    1.00690234441369    0.00857152471444
H         2.57545909620749   -0.51997554996180   -0.88745133613981
H         2.57771846944607   -0.53736081343937    0.87420309873751
H         0.13473343694248   -2.24896147893304   -0.01459161893993
H        -2.38352573549704   -1.25551589552784   -0.00156439780857
H        -0.83664701508318    3.18999198146835    0.03505867335090
H        -2.32616842965808    3.61326905871969    0.91417929832988
H        -2.32531618934625    3.62637892943066   -0.83888688266253
