114
 energy: -167.408276171998 gnorm: 0.003513780393 xtb: 6.4.1 (1a32961)
N        -0.96510000000009   -2.11530000000002   -0.24090000000007
C        -2.24700000000011   -1.69839999999992   -0.36219999999968
C        -3.14040000000003   -2.36820000000041   -1.21199999999953
C        -2.70220000000021   -3.47560000000078   -1.93049999999986
C        -1.37780000000019   -3.89880000000007   -1.78760000000019
C        -0.54289999999994   -3.18669999999997   -0.93510000000010
H         0.49810000000040   -3.45630000000003   -0.78939999999999
H        -0.99569999999995   -4.76030000000011   -2.32769999999996
H        -4.16500000000008   -2.02890000000000   -1.31829999999997
C        -2.62129999999980   -0.50949999999979    0.44099999999979
N        -1.62599999999999    0.07329999999965    1.16020000000002
C        -1.89679999999994    1.15240000000014    1.91690000000024
C        -3.17229999999943    1.70329999999968    1.99649999999979
C        -4.20509999999991    1.11739999999968    1.26270000000010
C        -3.92610000000002    0.00249999999973    0.47819999999994
H        -4.71959999999995   -0.46419999999995   -0.09520000000010
H        -3.34629999999996    2.57509999999992    2.62069999999983
H        -1.04449999999959    1.57419999999999    2.43690000000010
Ir        0.42150000000002   -0.81649999999999    0.91330000000000
H         0.87260000000000   -2.23030000000000    1.54050000000001
B         0.50669999999998    0.41560000000007   -0.81540000000001
O         0.19499999999997   -0.04700000000004   -2.09149999999984
C         0.00650000000010    1.10039999999997   -2.95430000000012
C         0.49019999999982    0.74739999999957   -4.35780000000006
H         1.51610000000057    0.37379999999993   -4.33699999999998
H         0.44729999999995    1.62240000000002   -5.01670000000002
H        -0.14740000000032   -0.03390000000004   -4.78429999999996
C        -1.50119999999925    1.39559999999977   -2.96669999999981
H        -1.75370000000005    2.21459999999983   -3.64850000000017
H        -2.03200000000014    0.49450000000000   -3.28929999999993
H        -1.85169999999998    1.65210000000000   -1.96219999999987
C         0.84230000000057    2.20670000000006   -2.22039999999995
O         0.75200000000004    1.78260000000002   -0.83689999999993
C         2.32929999999932    2.18619999999973   -2.59899999999996
H         2.74129999999996    1.18499999999994   -2.45749999999999
H         2.48869999999997    2.51300000000009   -3.63180000000025
H         2.87200000000015    2.86269999999975   -1.93200000000001
C         0.28439999999954    3.62290000000007   -2.33659999999999
H        -0.72650000000007    3.69040000000002   -1.92910000000012
H         0.92129999999969    4.31480000000010   -1.77609999999996
H         0.26430000000009    3.94810000000001   -3.38319999999999
B         1.56299999999985    0.60960000000001    1.84840000000008
O         2.92779999999996    0.55230000000000    2.15020000000015
C         3.36330000000026    1.88660000000002    2.50260000000065
C         4.53139999999962    1.78589999999975    3.47740000000039
H         4.27909999999998    1.16090000000025    4.33689999999983
H         5.39390000000033    1.33789999999986    2.97339999999982
H         4.82389999999997    2.77870000000012    3.83820000000010
C         3.79699999999987    2.56850000000011    1.19669999999993
H         4.20019999999999    3.57089999999998    1.37679999999996
H         4.56739999999999    1.95559999999995    0.72110000000021
H         2.95239999999982    2.63259999999998    0.50539999999996
C         2.05040000000020    2.50090000000008    3.09320000000014
O         1.03749999999999    1.81620000000003    2.31909999999992
C         1.89099999999970    4.00449999999993    2.88650000000010
H         1.87290000000003    4.25439999999998    1.82410000000011
H         0.94939999999996    4.34259999999999    3.33170000000001
H         2.71080000000060    4.55150000000009    3.36629999999989
C         1.82469999999994    2.13199999999995    4.56520000000007
H         1.92610000000005    1.05330000000000    4.71320000000003
H         2.52609999999990    2.65280000000006    5.22540000000003
H         0.80630000000019    2.41580000000002    4.84899999999998
B         2.27820000000019   -1.33090000000010    0.17410000000010
O         2.89459999999994   -2.57740000000008    0.38449999999989
C         4.26929999999991   -2.48199999999980   -0.07209999999937
C         5.10899999999997   -2.05380000000031    1.14010000000006
H         4.76349999999995   -1.08739999999999    1.51750000000001
H         4.98049999999999   -2.79469999999984    1.93590000000016
H         6.17419999999989   -1.99290000000000    0.89299999999999
C         4.71950000000007   -3.84659999999977   -0.58469999999959
H         4.75279999999998   -4.56129999999999    0.24420000000004
H         5.72330000000005   -3.78370000000001   -1.02010000000030
H         4.03499999999950   -4.23599999999988   -1.34170000000014
C         4.16440000000006   -1.36220000000047   -1.16299999999950
O         3.08519999999964   -0.55030000000020   -0.65399999999988
C         5.40719999999931   -0.48870000000009   -1.31550000000000
H         6.27319999999989   -1.09010000000005   -1.61530000000025
H         5.23299999999992    0.26929999999979   -2.08590000000017
H         5.64270000000002    0.02649999999989   -0.38240000000010
C         3.71800000000000   -1.89829999999948   -2.53110000000046
H         2.82530000000015   -2.52159999999997   -2.42739999999997
H         3.46090000000001   -1.05249999999987   -3.17550000000010
H         4.50570000000014   -2.48290000000024   -3.01790000000003
H        -3.38499999999999   -4.00130000000000   -2.59309999999962
H        -5.21400000000011    1.52079999999997    1.29959999999988
C         0.23590000000012   -1.68139999999993    2.96029999999990
N        -1.08901669415594   -1.98145762159574    3.34709608777469
C         1.03106040746373   -1.81935096349622    4.06701786381838
C        -1.09303051925385   -2.28460213563032    4.69984480650045
C        -2.23969727598022   -2.39569319680260    2.64794703927722
C         0.23474455538862   -2.21539030646911    5.17289449841885
H         2.09485081958117   -1.66159342381716    4.07152525503338
N        -2.15600953901007   -2.67227949028504    5.39695391243986
O        -2.23070204813328   -3.26627459921500    1.80965889605465
O        -3.31761249413768   -1.75496268481491    3.10463479785384
C         0.45217190875178   -2.62127573227922    6.49241407710346
C        -1.91101074736178   -3.03475322663091    6.65717823066895
C        -4.68225046234537   -2.28366904724980    3.05819320568667
C        -0.64556798517280   -3.03746632699215    7.22923662918594
H         1.44816757875067   -2.63970732935452    6.91367820695595
H        -2.78551579011067   -3.35576834695056    7.21175215310731
C        -5.24393929542305   -2.50099603946104    1.64778418164888
C        -4.73078971200465   -3.61254736532558    3.81648142580103
C        -5.49304414040265   -1.20193629321988    3.78004036314231
H        -0.52974775421931   -3.38335051171030    8.24694757495727
H        -4.46946987319872   -2.86501251170884    0.97396894668855
H        -5.67686911836917   -1.58207506792163    1.26054129884850
H        -6.03449564205822   -3.24965834577668    1.69500040243741
H        -4.25312405759609   -4.39464150715220    3.22535794817208
H        -5.77093287960031   -3.88455550819075    3.99693245589632
H        -4.20270137885790   -3.51331337615786    4.76383870146488
H        -5.30827081471554   -0.23749491630948    3.30878756503641
H        -5.19014204745549   -1.13989427870959    4.82440292265939
H        -6.55568325693745   -1.43396673644262    3.71982755566598
