114
 energy: -167.434847382906 gnorm: 0.000275242224 xtb: 6.4.1 (1a32961)
N        -0.86711047318514   -1.98979498158955   -0.43603764705715
C        -2.10107434614967   -1.49903166917490   -0.63178975338621
C        -2.99918254398238   -2.13121751003437   -1.49924836607025
C        -2.61395325267259   -3.27087529396679   -2.17178779915712
C        -1.32850690452998   -3.76118252134495   -1.96681386521628
C        -0.50286017137085   -3.08521127725715   -1.09145702636519
H         0.50038238306560   -3.43542788532518   -0.89251550968550
H        -0.98464950379543   -4.65215080738919   -2.46691569768595
H        -3.99727592130830   -1.74681723332002   -1.63234967956345
C        -2.45279007962259   -0.30140716879762    0.12374597112382
N        -1.57582112876650    0.09811115800009    1.06803991347827
C        -1.88568451143744    1.14944262501127    1.82409298137602
C        -3.04643400149770    1.88077065917809    1.67340462536332
C        -3.93330769765730    1.51641691187309    0.66508292757211
C        -3.63079693499310    0.41561669880011   -0.10939923020821
H        -4.30263152392228    0.11913526729310   -0.89750046411487
H        -3.24934359099208    2.71830472464791    2.32088801313355
H        -1.15066116333596    1.41544854157708    2.56852192841752
Ir        0.42149999999999   -0.81649999999994    0.91329999999994
H         0.87260000000002   -2.23029999999997    1.54050000000009
B         0.50553765202621    0.59938330876657   -0.61455672486511
O        -0.03030097079934    0.29698602902649   -1.85045594514014
C        -0.02697818984253    1.45841279935468   -2.68934442179774
C         0.38985826785101    1.06120393957721   -4.10353389157396
H         1.31754663731772    0.49926908972820   -4.08391330379965
H         0.50865344055152    1.94622660665026   -4.72300737816212
H        -0.38090100792682    0.42883212313938   -4.53733561312049
C        -1.46429730006526    1.99671517422291   -2.71805762026463
H        -1.54776233049007    2.85614294974847   -3.37639092989952
H        -2.12278474235108    1.20833242798287   -3.07701360587130
H        -1.78188759484907    2.26957660261687   -1.71386804417524
C         0.96767538902661    2.41312198571100   -1.94811920910188
O         0.95746706800752    1.89717189989635   -0.60785628337645
C         2.40631525073506    2.27514175138931   -2.46002965494280
H         2.71522026809797    1.23718978596503   -2.36723106058252
H         2.49692158759146    2.61473548716867   -3.48755678531344
H         3.05964323785145    2.87363471211372   -1.82976573330437
C         0.56649435667504    3.88696354340108   -1.94344818155435
H        -0.37485875604767    4.03931801696562   -1.42508428645031
H         1.33268364274755    4.46181068563033   -1.42913665864529
H         0.48189198413025    4.25121076774617   -2.96399522099100
B         1.56141753748129    0.59945915606690    1.93910600952629
O         2.93096853469877    0.65638607726066    2.04282826714736
C         3.32664162356789    1.91795339117396    2.60272588710190
C         4.51739234213364    1.72113630596221    3.53880370320494
H         4.31063745212934    0.95465832942695    4.27808206026871
H         5.37987758143285    1.40650603594905    2.95689815595120
H         4.75538961553599    2.65526482651752    4.04030624974140
C         3.73869815113621    2.80428748621632    1.42151777451876
H         4.04827934302540    3.79173785115455    1.75043843339475
H         4.56665498631673    2.32645443860964    0.90319587539982
H         2.90538220190506    2.87292495700803    0.72694572212299
C         2.01252236185596    2.41085128781414    3.29719625002202
O         0.99791732267483    1.65327244628996    2.62196363930631
C         1.72241261602891    3.90176863673580    3.13678878730446
H         1.56814980550853    4.14962765460236    2.09208558386235
H         0.81626495973202    4.15008159729107    3.68383152338957
H         2.54510577871681    4.48805532018368    3.53693217442555
C         1.94127116993602    2.03617972145812    4.78300913773355
H         2.10319794791695    0.96876995521978    4.90505342241764
H         2.67079932302744    2.59337293051327    5.36251595941061
H         0.94502487417778    2.26574541742770    5.15434682425460
B         2.27820000000052   -1.33089999999981    0.17409999999907
O         3.01783634279538   -2.39490619366081    0.65061730332311
C         4.33870150170769   -2.37351186340743    0.09298227042233
C         5.25179183730116   -1.77304685441178    1.16761981149971
H         4.86015055539092   -0.80216399739069    1.45847400234798
H         5.22563216643393   -2.42005732674479    2.04090444709881
H         6.27639305676762   -1.68840848668671    0.81965146643530
C         4.78678092991809   -3.80107023662500   -0.21715628636439
H         4.85067965193474   -4.35694392171787    0.71447429163688
H         5.76467311739992   -3.79124348263473   -0.69016775521288
H         4.07645835313167   -4.30711204345350   -0.86221521670598
C         4.16798074396780   -1.44179353578164   -1.15656571576023
O         2.95334508429503   -0.73115143691929   -0.86104676094850
C         5.30089381712373   -0.43903077555720   -1.36524386393473
H         6.24798029950695   -0.95976668586242   -1.47537196710595
H         5.10900978418892    0.13578839272145   -2.26757566156018
H         5.35383554855453    0.24938939937092   -0.52916483531203
C         3.93199879585377   -2.21625964042055   -2.45998351627118
H         3.09773500752369   -2.90244376167736   -2.34183158234431
H         3.67398207276088   -1.50799606736915   -3.24376029563618
H         4.82226000685211   -2.76249723078994   -2.75618141576208
H        -3.29909995677622   -3.77378405775830   -2.83729069691621
H        -4.83903849800569    2.07785157368676    0.49207298527063
C         0.23589999999925   -1.68139999999980    2.96029999999964
N        -1.03315625613961   -1.88152061744605    3.52869719246915
C         1.14840356328036   -1.57926845784494    3.97398829482930
C        -0.90760201314748   -1.83809708766036    4.91184072327464
C        -2.19260180492639   -2.26059752789131    2.86867379176752
C         0.46583039761621   -1.65720292099847    5.21748460075798
H         2.20195885830703   -1.44590033493137    3.83051149216205
N        -1.87426580134964   -1.98991304776468    5.79473445118197
O        -2.18683597398716   -2.85713233720600    1.81630707994756
O        -3.25553738538803   -1.90104161486501    3.56449104624633
C         0.82218693917998   -1.60699783968126    6.56242141240615
C        -1.50261840508674   -1.93432232303734    7.06863560012020
C        -4.58051190411699   -2.44301934794874    3.29533044256101
C        -0.19209803837653   -1.74068280648308    7.49483414256948
H         1.85070910975506   -1.47148686105302    6.86255016023298
H        -2.30708069389782   -2.05345622079726    7.78137431860733
C        -5.07798587306461   -1.99961948531755    1.92135721698361
C        -4.54172726190334   -3.96643936991956    3.40513531644982
C        -5.44212130772929   -1.84426977218119    4.40635726280083
H         0.02326238858889   -1.70377829898056    8.55138245593722
H        -4.44618981915816   -2.41263679360939    1.13910896129976
H        -5.05828675409267   -0.91436357797630    1.85106617385964
H        -6.09659761445196   -2.34722161267202    1.77686211673543
H        -3.92133455435154   -4.38914003511363    2.61830942837644
H        -5.54759844391232   -4.36502832307681    3.31365362265492
H        -4.13009794371124   -4.25354830715959    4.37015243454794
H        -5.46491689979185   -0.76201518417802    4.31674732261307
H        -5.01214670703033   -2.09889168117588    5.37048190646528
H        -6.45354996352900   -2.23265507822695    4.34290534451602
