9
 energy: -17.878270953407 gnorm: 0.000270785005 xtb: 6.4.1 (1a32961)
C         0.34341209725849    1.01134934928190   -0.01030931718716
S         1.96017378179518    0.43611910208167   -0.00482509325029
C         1.42604527459976   -1.19875683487455    0.00237372599085
C         0.07379148674555   -1.29654724092918   -0.00024497008942
C        -0.54203963627675   -0.02032866505480   -0.00749614147585
Cl       -2.25474945085710    0.19850453103971   -0.01289758681853
H         0.14103454439470    2.06253086561345   -0.01590368221060
H         2.14874750626507   -1.98905310055394    0.00797465254811
H        -0.47383560392491   -2.22001800660427    0.00281841249289
