118
 energy: -179.807130334738 gnorm: 0.002172513796 xtb: 6.4.1 (1a32961)
N        -0.96510000000050   -2.11529999999949   -0.24089999999923
C        -2.24699999999866   -1.69840000000041   -0.36219999999951
C        -3.14039999999921   -2.36820000000007   -1.21199999999976
C        -2.70219999999876   -3.47560000000073   -1.93049999999798
C        -1.37779999999663   -3.89880000000046   -1.78760000000063
C        -0.54289999999882   -3.18669999999997   -0.93510000000022
H         0.49809999999977   -3.45630000000006   -0.78940000000004
H        -0.99570000000092   -4.76029999999965   -2.32770000000000
H        -4.16500000000061   -2.02889999999993   -1.31830000000023
C        -2.62129999999939   -0.50949999999905    0.44100000000052
N        -1.62599999999943    0.07329999999988    1.16020000000083
C        -1.89679999999953    1.15239999999994    1.91690000000020
C        -3.17230000000046    1.70330000000185    1.99650000000213
C        -4.20510000000025    1.11740000000094    1.26270000000053
C        -3.92609999999866    0.00250000000126    0.47820000000219
H        -4.71959999999975   -0.46419999999916   -0.09520000000045
H        -3.34629999999995    2.57509999999856    2.62070000000099
H        -1.04450000000053    1.57420000000006    2.43690000000042
Ir        0.42150000000002   -0.81650000000010    0.91329999999995
H         0.87260000000001   -2.23030000000002    1.54050000000000
B         0.50670000000019    0.41559999999979   -0.81540000000000
O         0.19500000000027   -0.04699999999948   -2.09149999999882
C         0.00650000000228    1.10039999999889   -2.95430000000022
C         0.49020000000210    0.74739999999948   -4.35779999999967
H         1.51610000000216    0.37380000000012   -4.33699999999986
H         0.44730000000036    1.62239999999921   -5.01670000000003
H        -0.14740000000181   -0.03390000000055   -4.78429999999992
C        -1.50119999999781    1.39559999999928   -2.96669999999881
H        -1.75370000000046    2.21459999999925   -3.64849999999907
H        -2.03200000000043    0.49449999999959   -3.28929999999942
H        -1.85170000000027    1.65210000000057   -1.96220000000001
C         0.84229999999648    2.20670000000043   -2.22040000000101
O         0.75199999999986    1.78260000000028   -0.83690000000035
C         2.32929999999710    2.18620000000051   -2.59899999999965
H         2.74129999999987    1.18500000000088   -2.45750000000015
H         2.48870000000046    2.51300000000008   -3.63179999999978
H         2.87200000000037    2.86269999999986   -1.93200000000079
C         0.28439999999928    3.62289999999860   -2.33660000000013
H        -0.72650000000071    3.69039999999981   -1.92909999999952
H         0.92130000000056    4.31480000000040   -1.77610000000044
H         0.26430000000028    3.94809999999981   -3.38320000000091
B         1.56300000000027    0.60959999999995    1.84840000000002
O         2.92780000000021    0.55230000000009    2.15019999999989
C         3.36329999999954    1.88659999999987    2.50260000000031
C         4.53139999999991    1.78590000000001    3.47740000000082
H         4.27909999999972    1.16090000000047    4.33690000000049
H         5.39389999999961    1.33789999999959    2.97340000000012
H         4.82390000000016    2.77870000000012    3.83820000000006
C         3.79700000000043    2.56849999999990    1.19670000000026
H         4.20020000000002    3.57089999999996    1.37679999999997
H         4.56739999999992    1.95560000000004    0.72109999999996
H         2.95239999999987    2.63260000000000    0.50540000000003
C         2.05039999999913    2.50090000000015    3.09320000000012
O         1.03750000000050    1.81619999999966    2.31909999999975
C         1.89100000000085    4.00449999999945    2.88650000000068
H         1.87289999999993    4.25440000000018    1.82410000000001
H         0.94940000000032    4.34259999999997    3.33169999999994
H         2.71079999999932    4.55149999999974    3.36629999999979
C         1.82470000000039    2.13200000000063    4.56520000000014
H         1.92610000000018    1.05329999999989    4.71319999999997
H         2.52609999999979    2.65280000000026    5.22539999999920
H         0.80630000000216    2.41579999999973    4.84899999999982
B         2.27819999999960   -1.33090000000044    0.17409999999978
O         2.89459999999936   -2.57739999999976    0.38449999999993
C         4.26930000000049   -2.48199999999889   -0.07210000000199
C         5.10900000000068   -2.05380000000002    1.14010000000015
H         4.76350000000012   -1.08740000000005    1.51750000000037
H         4.98049999999976   -2.79470000000025    1.93590000000026
H         6.17420000000007   -1.99290000000002    0.89300000000023
C         4.71950000000025   -3.84660000000043   -0.58470000000256
H         4.75280000000009   -4.56130000000027    0.24420000000077
H         5.72330000000133   -3.78369999999997   -1.02009999999965
H         4.03500000000085   -4.23600000000043   -1.34170000000093
C         4.16440000000189   -1.36219999999894   -1.16299999999915
O         3.08519999999932   -0.55030000000033   -0.65400000000034
C         5.40719999999926   -0.48869999999958   -1.31550000000009
H         6.27320000000039   -1.09010000000048   -1.61530000000026
H         5.23299999999995    0.26930000000089   -2.08589999999891
H         5.64269999999964    0.02649999999892   -0.38239999999906
C         3.71799999999681   -1.89829999999957   -2.53109999999979
H         2.82530000000070   -2.52159999999952   -2.42739999999999
H         3.46089999999992   -1.05250000000047   -3.17550000000038
H         4.50570000000030   -2.48290000000007   -3.01789999999967
H        -3.38499999999961   -4.00130000000012   -2.59309999999929
H        -5.21400000000020    1.52080000000037    1.29960000000019
C         0.23590000000026   -1.68139999999983    2.96029999999972
C        -0.92084876501228   -2.02469261395451    3.67974081264114
C         1.42096265996417   -1.81329556846793    3.72558887845676
C        -0.90142105058794   -2.14166981488736    5.07783298764804
C        -2.24102350072113   -2.43912180548344    3.10910791638392
C         1.50505985865601   -2.14767260146422    5.08401953413165
H         2.34676050291391   -1.71558161744349    3.17635169646258
C         0.28590743620848   -2.19632632209881    5.77641786908817
H        -1.83482094792133   -2.27342016704555    5.60746043177771
F        -2.86847479006241   -3.36692175648259    3.89410864580449
F        -3.17914139083945   -1.45358021752199    2.98531832264667
F        -2.17566543367581   -3.05693128881932    1.90296673071392
B         2.76093859677239   -2.62126182387862    5.95897768352315
H         0.26835670043980   -2.34847521118715    6.84569885805262
C         2.73179265386384   -3.91213338891833    6.74542597650633
N         3.93330016720749   -1.82150719283692    6.19213228414622
C         3.73573171114848   -4.21043568789789    7.62188323246897
H         1.93456827066990   -4.63698393363361    6.64305600846921
C         4.13047135242413   -0.59933812978739    5.43358217140271
C         4.90235159530516   -2.11717007767028    7.12228318138443
C         4.81871399656947   -3.32811430655667    7.85746195703908
H         3.72878920544167   -5.13411337833453    8.18919537348752
H         3.35471234455924   -0.55621663480691    4.66999423628630
H         5.11510056361543   -0.62644563819277    4.94694828778788
H         4.06030382485334    0.26649131498720    6.10817524450751
C         5.97626997486491   -1.24263184261713    7.38714102911424
C         5.81101646802843   -3.61561390020461    8.80847714297083
C         6.92842789262461   -1.55325481143171    8.33754137356532
H         6.07229456984406   -0.30521038582119    6.86487776425922
C         6.85271317356726   -2.74477261472933    9.05151684959622
H         5.74372916162505   -4.54169553977619    9.36325175748433
H         7.73507283536575   -0.85815501284139    8.52568673299961
H         7.60430961901875   -2.97920681638963    9.79173291091524
