118
 energy: -179.838553803931 gnorm: 0.000237089264 xtb: 6.4.1 (1a32961)
N        -0.80199243041263   -2.01207758187810   -0.49829244413055
C        -2.01045791093677   -1.50262091894036   -0.79287607604980
C        -2.79123646588364   -2.05509624745073   -1.81506101297434
C        -2.32270097815579   -3.13599689859358   -2.52953625427323
C        -1.07264176592470   -3.65530033940448   -2.20822041633609
C        -0.36024511952767   -3.05539283263587   -1.19068711579042
H         0.61446222940026   -3.42467200170863   -0.90439764870304
H        -0.66881884449126   -4.50442690433969   -2.73528036409131
H        -3.75811621082661   -1.64344701099110   -2.05317180314695
C        -2.44625682435650   -0.35860166634777    0.00173973676592
N        -1.59029349856472    0.09299759578085    0.94389201935047
C        -1.95309342980973    1.13913098951313    1.68437810763486
C        -3.15853518640053    1.79444758489859    1.54418378659257
C        -4.05156620273694    1.34040322512458    0.57935562727760
C        -3.68626765241994    0.25922989083900   -0.19358239764559
H        -4.36692146558340   -0.10685531451514   -0.94393631829269
H        -3.40081120627385    2.63028952444384    2.18002128054834
H        -1.22733558077868    1.45852379538242    2.41588820653581
Ir        0.42149999999980   -0.81650000000004    0.91330000000004
H         0.87260000000006   -2.23030000000014    1.54049999999998
B         0.47082837650890    0.55993384874304   -0.68025087960712
O        -0.12733632932947    0.21869209024424   -1.87897537764392
C        -0.18514561158679    1.35392262589050   -2.74847594832968
C         0.12334488525771    0.91454964071698   -4.17776825140387
H         1.05395572422662    0.35843533065613   -4.21646586767305
H         0.18491000523448    1.78042711525843   -4.83185847203028
H        -0.67510491882402    0.26465904560866   -4.52806969087160
C        -1.61874298390774    1.90026225850480   -2.68982396252224
H        -1.74487144030622    2.74112656096492   -3.36526623250701
H        -2.30549261833751    1.10703595026347   -2.97875125334164
H        -1.86447964411488    2.20475244040537   -1.67446702623505
C         0.86072677300438    2.32451428985602   -2.10864553591394
O         0.93262002315702    1.85269750641445   -0.75402148015808
C         2.25824880080368    2.15705059864751   -2.71717224233789
H         2.56955030027962    1.12120779427065   -2.60721703905241
H         2.27083018583375    2.45222459461190   -3.76222135786522
H         2.96077670012177    2.77852722008275   -2.16758182227320
C         0.46904031071384    3.80078432626835   -2.12383695052345
H        -0.42807991720066    3.97699358274045   -1.53833756737941
H         1.27619178875697    4.38870360978851   -1.69324166571051
H         0.30464287168677    4.13039652738203   -3.14638337635054
B         1.51040570100348    0.71674246754728    1.84678465271089
O         2.87333486548173    0.89994693703818    1.93052906416651
C         3.16708170978549    2.27605953765152    2.22485290023864
C         4.35398355383307    2.38005307618807    3.18054397803448
H         4.15990873146736    1.87515494208123    4.11723038062589
H         5.22121133120008    1.91991968188482    2.71444930382667
H         4.57459638512543    3.42697373635294    3.37153976947978
C         3.55512394189611    2.93152020860283    0.89458816079337
H         3.77028841451946    3.98860807066520    1.01827283931641
H         4.44241755158841    2.43396941269141    0.50986905596466
H         2.74997374795748    2.78352623608489    0.18264617808872
C         1.80674963026485    2.80811558778435    2.79652106374890
O         0.86725904356616    1.81939458274478    2.35520866009321
C         1.37603751783100    4.16988732449958    2.25287659158081
H         1.21387623795584    4.11075623366298    1.18193665428043
H         0.43992159232662    4.46073730263126    2.72312376638454
H         2.12760382415924    4.92244329059156    2.47447852926522
C         1.75373572405575    2.83674955467153    4.32911785260037
H         1.98570738305832    1.85496260380792    4.73157465523136
H         2.44198828313213    3.57534468962550    4.72806350185950
H         0.74293153409985    3.09329434351139    4.63782438479527
B         2.27820000000183   -1.33090000000074    0.17410000000490
O         3.11970015589046   -2.24629981715188    0.77272935056313
C         4.41591734635113   -2.20426716415049    0.16241738097555
C         5.30377073560236   -1.37628611054014    1.09848236383126
H         4.82941828942721   -0.41400699277886    1.27196028981252
H         5.37002999281558   -1.89702205520852    2.05051986518256
H         6.30305812864708   -1.24990812847919    0.69418785478577
C         4.97689047592389   -3.62111938081295    0.04977705714900
H         5.11748767563283   -4.02242919513115    1.04984673622696
H         5.93499460988303   -3.60382304092046   -0.46209511508021
H         4.29456617082633   -4.27644884308562   -0.48097702949460
C         4.12844323835015   -1.49167630574042   -1.20475209830717
O         2.86555429296006   -0.84490589727745   -0.96877173990834
C         5.16446544975076   -0.44400846288465   -1.60673366582713
H         6.15028138445764   -0.89625959262019   -1.67038831049969
H         4.90394342059060   -0.03533827589459   -2.57971169440983
H         5.17703748975518    0.36901753154067   -0.88927800113556
C         3.92393636294941   -2.47217962772991   -2.36681419135486
H         3.16800499973385   -3.20876264635505   -2.10852767167266
H         3.56825661429266   -1.91783011340253   -3.23208227111448
H         4.85295331209290   -2.97166851887404   -2.62409579021643
H        -2.91606831492016   -3.56926900394819   -3.32041946031201
H        -5.00885451779577    1.81851933567781    0.43783729131629
C         0.23590000000284   -1.68140000000357    2.96029999999717
C        -0.98461872791373   -1.93224077497212    3.60014293783274
C         1.37133923684748   -1.72728078156118    3.79104911229668
C        -1.06643638455379   -1.96469303392674    4.99926645644153
C        -2.26928325688319   -2.27139823210009    2.92088558640244
C         1.33400274830827   -1.92148728865252    5.16863197313966
H         2.32928290240393   -1.67036127121645    3.29677176680598
C         0.06830191265478   -1.95202255002868    5.77083097277139
H        -2.03868628067266   -2.06071274965067    5.46301824811851
F        -2.96213758198090   -3.22217004484289    3.60601718247950
F        -3.15930880031194   -1.24759329420190    2.81900222545190
F        -2.15203862229615   -2.78418263949492    1.68826699142562
B         2.59354321725448   -2.35772647656125    6.01456451786793
H        -0.01772980684611   -2.02059759966848    6.84455898414603
C         2.47263888855422   -3.60414225048417    6.89242181642183
N         3.85227140790237   -1.71877000999040    5.99276614627561
C         3.55058164175662   -4.04704331694257    7.57507223228305
H         1.54468492288249   -4.15387676077521    6.98591593813733
C         4.04083884680007   -0.48081515822498    5.26134208596233
C         4.94088075893479   -2.21696254129029    6.67576973774430
C         4.80809603493483   -3.37713497826629    7.47836336043222
H         3.50846778583721   -4.92291333683423    8.21235919805711
H         3.08449539671009   -0.17390871563633    4.84953837590779
H         4.73831880394687   -0.61421640620669    4.43273796800192
H         4.41385231085803    0.29734699358888    5.93124190098259
C         6.20672183198828   -1.61090576218405    6.60701305089315
C         5.92097799721764   -3.86622248879396    8.17748177566399
C         7.28200929387290   -2.11717363102940    7.30042540659920
H         6.36312555175764   -0.73802806070034    5.99641983463766
C         7.14540912268770   -3.25056153949212    8.09756250513010
H         5.79554308394794   -4.75049231951815    8.78650975662066
H         8.24239318021322   -1.62875417475607    7.22313561320362
H         7.99357785622607   -3.63954223662596    8.64076637896681
