99
 energy: -144.451977449297 gnorm: 0.000179205302 xtb: 6.4.1 (1a32961)
N        -0.91475441526360   -2.03811044692873   -0.35750985615880
C        -2.18053147915565   -1.59775874441301   -0.49221008086860
C        -3.09660048215755   -2.27950125699263   -1.30569504421654
C        -2.69590605491479   -3.39688733770768   -2.00319201091456
C        -1.37601328355625   -3.82562488688598   -1.87316934047871
C        -0.53826579589054   -3.11745975250841   -1.03824704486818
H         0.48911077023905   -3.42152914916276   -0.89453050868725
H        -1.01725493294767   -4.69297862099871   -2.40304793342838
H        -4.11654052935518   -1.94052783882975   -1.38413764165885
C        -2.52484310547246   -0.39046828278614    0.24384616645455
N        -1.58699482413293    0.08880625336265    1.09113121325248
C        -1.86523564912583    1.18834560122040    1.79062583783365
C        -3.05585156357912    1.87621512935401    1.68867154775831
C        -4.02112863605918    1.41040416905416    0.79793509724566
C        -3.74706511085387    0.27208874420017    0.07251852583594
H        -4.47436514737175   -0.09717648275869   -0.63155446876261
H        -3.22977088152013    2.75516330550903    2.28817014856511
H        -1.08146138909577    1.52026155909756    2.45417672185771
Ir        0.42149999999993   -0.81649999999993    0.91329999999998
H         0.87260000000000   -2.23030000000001    1.54050000000003
B         0.40177471978070    0.63236021269002   -0.58985059145146
O        -0.19489437297234    0.33347802670305   -1.79980778720651
C        -0.26978910464829    1.50724572512514   -2.61633612459618
C         0.06322871140156    1.14641070839541   -4.06205978978716
H         1.00217633786814    0.60549228640835   -4.11444152238661
H         0.12368157295707    2.04632818792796   -4.66870966255305
H        -0.72062212570934    0.50616009379433   -4.45978412996630
C        -1.71610469719622    2.01753238816283   -2.54346070975991
H        -1.85754636529649    2.88561448888890   -3.18050973522175
H        -2.38312015573056    1.22336671937729   -2.87332414518227
H        -1.97432244024724    2.26948615882460   -1.51677107652544
C         0.74919863066234    2.47080543628697   -1.92309582094303
O         0.81906796583595    1.94428913679088   -0.59052213196116
C         2.15923773735293    2.35623878209340   -2.51508108186760
H         2.48333458809073    1.31980071473134   -2.46021959448477
H         2.19069543797663    2.71496511398245   -3.53981252411958
H         2.84062642494006    2.95035101461076   -1.91076930165214
C         0.32858865446966    3.93865093795640   -1.88423593639877
H        -0.58262054505449    4.07370895518650   -1.30969524537215
H         1.11576000025535    4.52195759841884   -1.41249098487264
H         0.17764938502998    4.30833942012009   -2.89527778311222
B         1.57270548461997    0.63605385715774    1.88170223603057
O         2.93035592902578    0.83054073750186    1.80619292868065
C         3.29394936556596    2.07514741725580    2.41900638161232
C         4.57541781783639    1.89102665601142    3.23118511629186
H         4.47671103632590    1.06298172440424    3.92493268798212
H         5.39695161613183    1.67098754674054    2.55429852138306
H         4.80677126169612    2.80175952229735    3.77656616088280
C         3.54930534461817    3.06440371743481    1.27552473104529
H         3.81188390238986    4.04948133740223    1.64947536936406
H         4.36822751036855    2.68621828754534    0.66761194928691
H         2.66336005270256    3.11589073527436    0.64826047847075
C         2.02390194920782    2.43220499873817    3.26727710036161
O         1.01076352117338    1.59569369729712    2.69362196163975
C         1.57874049898532    3.89152652017400    3.17334429018352
H         1.30660462468599    4.14503053789879    2.15412485513666
H         0.70588373918726    4.03649876660518    3.80529024044524
H         2.37210082913807    4.54983953742853    3.51676120906402
C         2.15064599157027    2.03975128896540    4.74453276105661
H         2.41768834385852    0.99007518655640    4.82661818250508
H         2.88988559757481    2.65317643360282    5.25029928887732
H         1.18520026761555    2.17918163515759    5.22565159880882
B         2.27820000000020   -1.33089999999959    0.17409999999907
O         3.14161548699271   -2.25747676248743    0.71763503069035
C         4.40188449610104   -2.22950262420547    0.03510964253901
C         5.36812195489337   -1.44505134317999    0.92969503847546
H         4.93918641417497   -0.46941022169515    1.14085369123536
H         5.47619226540735   -1.97827288168110    1.87114721979834
H         6.34535550413934   -1.34318218590203    0.46826837622569
C         4.91826812544733   -3.65779069622443   -0.13768681362087
H         5.10590125654560   -4.08266643896504    0.84479890142820
H         5.84529730851649   -3.65405130494898   -0.70411408922645
H         4.18888731861514   -4.28424204207716   -0.64001410667149
C         4.05641002029229   -1.48054077183150   -1.29999964008281
O         2.81386580861596   -0.83035353149653   -0.99057537623949
C         5.08026448477158   -0.42980020217537   -1.72669040844192
H         6.05807092022673   -0.88556079807505   -1.85546565666437
H         4.77052242089720    0.00726549512817   -2.67268762653477
H         5.13686531070236    0.36340035496438   -0.98926353550627
C         3.79004217004642   -2.42967090303898   -2.47623358166526
H         3.03527706304375   -3.16267355595548   -2.20490990229937
H         3.40569332494428   -1.84872381167658   -3.31119445648798
H         4.70032944668502   -2.93448068009667   -2.78507464192694
H        -3.39039555612360   -3.92933146418906   -2.63511475916357
H        -4.96011075051122    1.92898614044061    0.67605707773831
C         0.23589999999914   -1.68139999999921    2.96030000000124
C        -1.06539629616634   -1.94322999483388    3.37856774660079
C         1.19341431155506   -1.66973847725708    3.97872820770101
C        -1.37594478313065   -2.06488766673466    4.73343031993452
H        -1.87340152061311   -2.05283056702590    2.66964901740526
C         0.75857844151217   -1.82626014120122    5.32511535251170
C         2.61098386952823   -1.55965500707020    4.03146743499975
N        -0.49763700440086   -2.00390744596569    5.72042295195291
H        -2.40128947966219   -2.22976454227806    5.04267730314317
N         1.85260189776145   -1.79189513284133    6.12869861416596
C         2.96822456813903   -1.63915125716272    5.34275273949665
H         3.23978134581231   -1.43937942896109    3.17413221118386
H         1.83793010857346   -1.88904902770400    7.12936778345649
H         3.94173551548292   -1.59982853704267    5.79283129861476
