101
 energy: -145.423395785209 gnorm: 0.002815270099 xtb: 6.4.1 (1a32961)
N        -0.96510000000000   -2.11530000000002   -0.24090000000000
C        -2.24700000000000   -1.69840000000000   -0.36220000000000
C        -3.14040000000000   -2.36820000000001   -1.21200000000001
C        -2.70220000000002   -3.47560000000001   -1.93050000000002
C        -1.37780000000001   -3.89879999999993   -1.78760000000007
C        -0.54289999999999   -3.18669999999993   -0.93510000000001
H         0.49810000000000   -3.45630000000001   -0.78940000000000
H        -0.99570000000000   -4.76030000000002   -2.32769999999999
H        -4.16500000000000   -2.02890000000000   -1.31830000000000
C        -2.62130000000001   -0.50950000000000    0.44100000000000
N        -1.62600000000000    0.07330000000001    1.16020000000002
C        -1.89680000000001    1.15240000000003    1.91689999999998
C        -3.17230000000000    1.70330000000006    1.99649999999997
C        -4.20510000000000    1.11739999999998    1.26269999999997
C        -3.92610000000000    0.00249999999998    0.47820000000002
H        -4.71960000000000   -0.46420000000000   -0.09520000000000
H        -3.34630000000001    2.57510000000002    2.62070000000001
H        -1.04450000000000    1.57420000000000    2.43690000000001
Ir        0.42150000000000   -0.81650000000000    0.91330000000000
H         0.87260000000000   -2.23030000000000    1.54050000000000
B         0.50670000000000    0.41560000000002   -0.81539999999998
O         0.19500000000000   -0.04700000000003   -2.09150000000001
C         0.00649999999999    1.10040000000009   -2.95429999999997
C         0.49019999999998    0.74740000000000   -4.35780000000001
H         1.51609999999999    0.37379999999999   -4.33700000000000
H         0.44730000000000    1.62240000000004   -5.01670000000000
H        -0.14740000000001   -0.03390000000000   -4.78430000000000
C        -1.50119999999999    1.39560000000006   -2.96669999999998
H        -1.75370000000000    2.21460000000001   -3.64850000000000
H        -2.03200000000001    0.49450000000001   -3.28930000000001
H        -1.85169999999999    1.65209999999999   -1.96219999999999
C         0.84230000000000    2.20669999999998   -2.22040000000000
O         0.75200000000000    1.78259999999999   -0.83689999999997
C         2.32930000000002    2.18620000000002   -2.59899999999996
H         2.74130000000000    1.18500000000002   -2.45749999999999
H         2.48870000000000    2.51300000000000   -3.63179999999997
H         2.87200000000001    2.86270000000001   -1.93199999999999
C         0.28440000000001    3.62290000000002   -2.33660000000007
H        -0.72650000000000    3.69040000000000   -1.92910000000002
H         0.92130000000001    4.31480000000000   -1.77610000000000
H         0.26430000000000    3.94809999999999   -3.38320000000005
B         1.56300000000000    0.60960000000001    1.84840000000001
O         2.92780000000000    0.55229999999999    2.15020000000001
C         3.36330000000001    1.88659999999999    2.50260000000003
C         4.53139999999999    1.78589999999997    3.47739999999999
H         4.27910000000000    1.16090000000003    4.33689999999998
H         5.39390000000000    1.33789999999999    2.97340000000000
H         4.82390000000000    2.77869999999998    3.83820000000000
C         3.79700000000000    2.56850000000000    1.19670000000001
H         4.20020000000000    3.57090000000000    1.37679999999999
H         4.56740000000001    1.95560000000000    0.72110000000001
H         2.95240000000000    2.63260000000000    0.50540000000000
C         2.05039999999999    2.50090000000001    3.09319999999997
O         1.03750000000001    1.81620000000004    2.31909999999998
C         1.89100000000004    4.00450000000004    2.88649999999997
H         1.87290000000000    4.25440000000000    1.82409999999998
H         0.94939999999999    4.34259999999999    3.33169999999999
H         2.71080000000000    4.55149999999998    3.36630000000000
C         1.82470000000001    2.13199999999998    4.56520000000000
H         1.92610000000001    1.05329999999999    4.71320000000001
H         2.52610000000001    2.65279999999999    5.22539999999999
H         0.80630000000001    2.41579999999999    4.84900000000000
B         2.27820000000000   -1.33090000000000    0.17410000000000
O         2.89459999999999   -2.57739999999999    0.38449999999999
C         4.26930000000002   -2.48200000000000   -0.07210000000002
C         5.10900000000000   -2.05380000000002    1.14009999999998
H         4.76350000000000   -1.08739999999997    1.51750000000000
H         4.98050000000000   -2.79470000000001    1.93590000000000
H         6.17420000000000   -1.99290000000000    0.89300000000000
C         4.71950000000001   -3.84659999999999   -0.58469999999999
H         4.75279999999999   -4.56130000000001    0.24419999999999
H         5.72329999999999   -3.78370000000000   -1.02010000000002
H         4.03500000000001   -4.23600000000001   -1.34169999999998
C         4.16439999999997   -1.36220000000005   -1.16299999999998
O         3.08520000000001   -0.55029999999999   -0.65400000000002
C         5.40719999999999   -0.48870000000001   -1.31549999999999
H         6.27320000000000   -1.09010000000000   -1.61530000000000
H         5.23300000000000    0.26929999999999   -2.08589999999999
H         5.64269999999999    0.02650000000000   -0.38240000000000
C         3.71799999999997   -1.89829999999997   -2.53109999999999
H         2.82530000000000   -2.52159999999999   -2.42740000000000
H         3.46090000000000   -1.05249999999998   -3.17549999999997
H         4.50570000000001   -2.48290000000001   -3.01790000000004
H        -3.38500000000000   -4.00129999999996   -2.59310000000001
H        -5.21400000000000    1.52080000000000    1.29960000000000
C         0.23589999999999   -1.68140000000001    2.96030000000000
C        -0.96553986075899   -2.14358885620537    3.53488297308841
C         1.21657326571395   -1.90113442366367    3.92827704875597
C        -0.69937426294508   -2.56017185409098    4.83261920625568
H        -1.93628845324884   -2.18826247675618    3.06989822504611
N         0.64450660385397   -2.39499931009572    5.06348949310718
C         2.69599247116295   -1.77774165309240    3.88267448551777
C        -1.54827829030789   -3.15962616448523    5.76900522692958
C         1.35312993849619   -2.70833628740429    6.28012773636712
H         2.99594773083206   -1.43849807078056    2.89595096301972
H         3.16184071785877   -2.74292362982309    4.08948869859300
H         3.05882135358842   -1.06619230735178    4.62667335834603
N        -2.23554397486006   -3.68762512540510    6.53227896450990
H         0.67644330583058   -3.19798948963560    6.97936865196565
H         1.74421344911543   -1.79690260628396    6.73814558271099
H         2.19106210111216   -3.37546936580898    6.06745812105017
