17
 energy: -31.298532416791 gnorm: 0.000134588220 xtb: 6.4.1 (1a32961)
C        -0.90332516298493    1.40844078338327   -0.00001342579566
C         0.27275019443220    0.68278335107003    0.00038231261633
C         0.29292098431734   -0.72770780932368    0.00118582240720
N         1.60940908465312   -1.13057168159783    0.00135134053942
C         2.30175157198814   -0.04261275163429    0.00069247372784
O         1.56346776044682    1.10383657043081    0.00008001408574
C         3.77406916650334    0.06238909072783    0.00059969213577
C        -0.88981157302664   -1.45367147943508    0.00166714261915
C        -2.05462629712638   -0.71271411523544    0.00131026145905
Br       -3.72737871558285   -1.64101609103843    0.00170841965684
C        -2.07974777304697    0.68141568610651    0.00046802014635
H        -0.90440453291847    2.48536108332505   -0.00065507750467
H         4.20021182063454   -0.93507650301636    0.00062335157638
H         4.10499495877607    0.61005567798600    0.88136316200968
H         4.10489842532568    0.61003317029578   -0.88020797579840
H        -0.88799985753948   -2.53049486383058    0.00232045939977
H        -3.02816005485154    1.19441988178639    0.00020400671919
