12
 energy: -21.046411891442 gnorm: 0.000156613428 xtb: 6.4.1 (1a32961)
C         0.67441892933411    0.25988453354252   -0.01134167644766
C         0.08410126659074    1.48122462228974   -0.01340682414021
C        -1.32847459135254    1.38728768132333   -0.00014702598410
C        -1.79578239891987    0.11241058553665    0.01095111807361
C        -3.20464883493212   -0.36037465462154    0.02434474230695
S        -0.48172146649427   -1.03381651415615    0.00681132860452
Cl        2.36102370515354   -0.07591666375801   -0.02541964818462
H         0.62943035074924    2.40645089567688   -0.02390310944819
H        -1.96876973452510    2.25044299787333    0.00023379698956
H        -3.87877891935454    0.49170647448418    0.04609717177872
H        -3.39108138762829   -0.98304485126025    0.89780146776426
H        -3.41624691862092   -0.95716510693069   -0.86159134131286
