98
 energy: -145.481938784854 gnorm: 0.000268039242 xtb: 6.4.1 (1a32961)
N        -0.97424271935986   -1.99317275150977   -0.37388255768450
C        -2.20514168708954   -1.47686198847274   -0.54014206945154
C        -3.09149149644693   -2.01993694107258   -1.47792537495617
C        -2.69682168455935   -3.08799091050585   -2.25516301418157
C        -1.41622951789289   -3.60327239355463   -2.07997046604561
C        -0.60264579836337   -3.02251091351111   -1.12822836981458
H         0.39655850175927   -3.39377294310887   -0.95011888200923
H        -1.06427009441885   -4.43545153506791   -2.66719809780141
H        -4.08009862147118   -1.61068763200399   -1.60224120157053
C        -2.54314900624642   -0.32609883333676    0.29350127063579
N        -1.58844412807202    0.10197822732397    1.14539283966708
C        -1.84586123049021    1.15187765159306    1.92253204625128
C        -3.04443495997433    1.83604215787146    1.90316455704243
C        -4.03536576143540    1.41470579912260    1.02146027557777
C        -3.77789684450026    0.32792431750101    0.21233832855151
H        -4.53304255630767   -0.00802470960850   -0.47819818571120
H        -3.20322983577958    2.67471385583322    2.56115250963122
H        -1.04305798380038    1.44483342668811    2.58232011301302
Ir        0.42150000000003   -0.81649999999991    0.91329999999984
H         0.87259999999992   -2.23030000000000    1.54049999999992
B         0.37059594054084    0.61620827199045   -0.59609997760262
O        -0.14392504951299    0.29413754869677   -1.83451227767744
C        -0.26420727201113    1.47603534425163   -2.63707009100465
C         0.16058683322191    1.16677881327604   -4.06982316565114
H         1.13453320392509    0.68938185963133   -4.08436513244250
H         0.19117519100962    2.08091586628914   -4.65688337831439
H        -0.55922107067172    0.48547209324412   -4.51675075248582
C        -1.74483985784839    1.88165266721898   -2.62250311129306
H        -1.91932872400559    2.74603118533855   -3.25617934465072
H        -2.33799263780156    1.04670781675035   -2.99010725558319
H        -2.06423598999989    2.10195783142669   -1.60575867677072
C         0.65122684732591    2.49344873668566   -1.88029522070446
O         0.67713275614859    1.95588614031810   -0.54921182771784
C         2.09619428131719    2.46873190980924   -2.39184085692037
H         2.47569949616914    1.45099170333403   -2.33780744214488
H         2.16387594890907    2.85073722141194   -3.40616335685980
H         2.70780778281570    3.08578607611228   -1.73854087343278
C         0.13958642786125    3.93176018448570   -1.85449983049723
H        -0.81071667206887    4.00501872448105   -1.33472468096084
H         0.86046183014635    4.55673200085022   -1.33295749836439
H         0.02646305715527    4.30272389560215   -2.86983457364765
B         1.60921047268114    0.63747915433944    1.83997389310024
O         2.86938257592645    1.06153321586009    1.54406133860921
C         3.22137240648317    2.22190243115768    2.31342245712724
C         4.58841704362183    1.98703332652644    2.95885574380440
H         4.60341501957534    1.03788848967613    3.48564882944430
H         5.34520173766067    1.94826585296144    2.17962632440367
H         4.83240524995665    2.79521307537312    3.64169706585584
C         3.32165888798965    3.38940078392258    1.32558246180695
H         3.53645940836043    4.32285463552374    1.83650316774347
H         4.12477947620132    3.17768666933300    0.62361982446346
H         2.39609183463201    3.46814654867064    0.76284927202723
C         2.03006488762865    2.35944717299313    3.33499482330779
O         1.09207732831284    1.37055886957164    2.88535174627483
C         1.32552565235780    3.71874977677074    3.31802636446168
H         0.91215488253429    3.92360362265479    2.33582952872742
H         0.50841580811298    3.69686251114572    4.03545012637791
H         2.01451796193744    4.50916730504558    3.59986090036323
C         2.40214381159549    2.02349318519874    4.78387275309028
H         2.87256493666368    1.04768468387985    4.84529395353175
H         3.06974459243224    2.77484962399541    5.19408391652819
H         1.49224909288846    1.99956387254531    5.37981119895686
B         2.27820000000063   -1.33089999999917    0.17410000000070
O         3.14348246533505   -2.23058515740105    0.75078558498134
C         4.40582065483723   -2.19980020298105    0.06606691318760
C         5.33771475708892   -1.32367321867400    0.90641422098147
H         4.89902145643020   -0.33536607875071    1.00728666822664
H         5.40625921187852   -1.75176380376604    1.90280424043249
H         6.32959315509217   -1.26349254640319    0.46944686437914
C         4.97328880733845   -3.61512149987438   -0.02157408290280
H         5.18908665059865   -3.96564972010663    0.98412165166908
H         5.89317492921462   -3.61190417641829   -0.59947076837671
H         4.26381101837825   -4.30059143585183   -0.47332389949103
C         4.03232324492962   -1.54387564776198   -1.30811187591178
O         2.79437544641470   -0.87377035753545   -1.01343278957940
C         5.04473278294602   -0.52662977252283   -1.82913434966162
H         6.02236950080113   -0.98878347957167   -1.93252341637682
H         4.72141354132523   -0.16708515761003   -2.80291574791158
H         5.10897282151300    0.32158318118412   -1.15646126472780
C         3.73765958991924   -2.57269792859299   -2.40766697835528
H         3.00832405723938   -3.29794055447984   -2.05747973609353
H         3.31232185904861   -2.05464177887921   -3.26379991209916
H         4.64526284956901   -3.08273664513333   -2.71547625667453
H        -3.36872649973583   -3.51259466003811   -2.98528547839319
H        -4.98475250131245    1.92542890599467    0.96954864190877
C         0.23589999999863   -1.68140000000105    2.96030000000027
C        -1.07318566187472   -2.04200169215424    3.30151830980604
C         1.16243986532858   -1.57561894946513    4.01332916200243
C        -1.48372011313956   -2.15794582676674    4.61160935646096
H        -1.79630021046739   -2.22987614138145    2.52132311652437
C         2.54589561951513   -1.37595421039929    3.80681368682222
C         0.76588114779682   -1.69596785493774    5.34459470796197
C        -0.56520769679687   -1.96397240326463    5.65223073482637
H        -2.50895133933277   -2.40366042732646    4.84874656770140
N         3.68907776330218   -1.26376638643131    3.80497460982064
H         1.49327828729755   -1.58652242478155    6.13665565210935
C        -0.98050537792508   -2.06516625926152    6.99407397780305
N        -1.33083597274871   -2.14684718333269    8.08565473006180
