125
 energy: -176.414443650935 gnorm: 0.000245926865 xtb: 6.4.1 (1a32961)
N        -0.88067986319991   -2.13224622208658   -0.40494835394565
C        -2.14959708058636   -1.72808866803698   -0.59596001326502
C        -3.01123871217773   -2.42983001750411   -1.44963669269717
C        -2.55360125225876   -3.54105689602745   -2.12326438505452
C        -1.23313442252936   -3.93569410583214   -1.93048498537134
C        -0.44802275292106   -3.20352977000791   -1.06190565188042
H         0.58079114888138   -3.47355070708136   -0.87779507877361
H        -0.82982074592382   -4.79697158361693   -2.43786383628159
H        -4.03358997019164   -2.11448224021696   -1.57820066874899
C        -2.56904094609857   -0.53481468260415    0.12961438949380
N        -1.69293506985678   -0.03459438847546    1.02409049051690
C        -2.04922150070441    1.03635341790530    1.72819700174622
C        -3.25833893296666    1.68373845105544    1.57592458737928
C        -4.15634036830378    1.20263836010398    0.62746848252475
C        -3.80512233067116    0.08421201654595   -0.09717524138925
H        -4.48260183358191   -0.29988641876881   -0.84247720258464
H        -3.49554504309387    2.54375073446504    2.18110086496583
H        -1.31978654199434    1.37605266576491    2.44623023125281
Ir        0.42149999999977   -0.81650000000111    0.91330000000125
H         0.87260000000091   -2.23030000000125    1.54049999999984
B         0.33289822844338    0.54706344232096   -0.65728887653958
O         0.25198546503381    0.12932265688247   -1.97548710556870
C        -0.18570870094583    1.20666368640257   -2.81185371261340
C         0.58650242354047    1.18442362586307   -4.12955666619390
H         1.65711103047420    1.18898652580058   -3.95573531474729
H         0.31151010285971    2.04309966617352   -4.73679850333015
H         0.33395961434601    0.27591264393647   -4.67155099745246
C        -1.67430609567554    0.97315753686836   -3.10854787440014
H        -2.06138775490362    1.72671238665379   -3.78809729214226
H        -1.78847421637996   -0.00862038856743   -3.56399332791212
H        -2.24935836278937    0.98374345023417   -2.18519483700229
C         0.06449444917616    2.46392298235078   -1.91349116847887
O         0.10553580469119    1.90636645938552   -0.59408692472344
C         1.42975077180145    3.11127574972477   -2.17608107179523
H         2.21340277841169    2.36948440019076   -2.04348894148296
H         1.47730526032195    3.53871192735978   -3.17344555050998
H         1.58982961258464    3.90018966479470   -1.44566422144050
C        -1.02301386053216    3.53538825828028   -1.98393889496238
H        -1.97604010604185    3.15352842421371   -1.63000398216227
H        -0.73935165202149    4.37148421112828   -1.34925896868310
H        -1.13142286839609    3.89137551829485   -3.00507926823948
B         1.34092047779979    0.76533535465703    1.93061952913983
O         2.51883293243844    1.41714303773675    1.70637290751020
C         2.59823474307256    2.61352894619685    2.49021746152050
C         3.98711243553771    2.71371933200016    3.11967388958506
H         4.21237965545798    1.82790605278883    3.70337079872361
H         4.72375151356194    2.78967010757605    2.32497562377970
H         4.05280272753997    3.59643078625255    3.74975940172045
C         2.39953428265806    3.78538795507298    1.52120931440545
H         2.40778507066494    4.73897184360981    2.04060006617197
H         3.20797906558291    3.76840359754401    0.79470832272524
H         1.46349661143395    3.65291172981627    0.98556681528617
C         1.41971853063319    2.45265239833185    3.51806063526562
O         0.66399041502488    1.36764435049459    2.97168611147980
C         0.50291783216248    3.67214858358446    3.64460243986535
H         0.03563878949449    3.90643290385446    2.69361961883476
H        -0.28101739924732    3.44636850013455    4.36385399532904
H         1.06369655460378    4.53243092998961    3.99882854469931
C         1.87574981798227    2.03880328195421    4.92211489685780
H         2.49277263503816    1.14765200756385    4.87359141649539
H         2.42512232890665    2.84148938613579    5.40441170414318
H         0.99652910479723    1.80280697982669    5.51723706571104
B         2.27819999999532   -1.33089999999518    0.17409999999803
O         2.46551597403359   -2.61621786124497   -0.31335181866472
C         3.74250056526938   -2.73723532777774   -0.95009337774725
C         4.65238449453107   -3.50255044507587    0.01797927448701
H         4.72378713960072   -2.96070349990668    0.95716460828464
H         4.20469967443634   -4.47208264307834    0.22362800029913
H         5.64077529126208   -3.65043429188944   -0.40588484546391
C         3.59400715019888   -3.53531389819830   -2.24439939570236
H         3.31832214930946   -4.55838029637009   -2.00079469624953
H         4.53545712078342   -3.54646002655636   -2.78648947369691
H         2.81690380803549   -3.11183706205715   -2.87209690782079
C         4.16559064161278   -1.24204513727274   -1.14042376475275
O         3.36244681303818   -0.55839337282280   -0.16732172220682
C         5.64694808852240   -0.95713850299338   -0.90865923742982
H         6.24360030590605   -1.49182656344411   -1.64320281775068
H         5.82158984046557    0.10946749505888   -1.02029947560174
H         5.95472203705550   -1.24972566599965    0.08787450677807
C         3.75625977204932   -0.68109670436368   -2.50912274194177
H         2.68507170166360   -0.80799640902538   -2.64625997764673
H         3.97311691127692    0.38479858913281   -2.51820173812547
H         4.30220707899396   -1.15888958158004   -3.31703601265624
H        -3.20786499195534   -4.09075839822469   -2.78318025559796
H        -5.10572080985155    1.68959366525159    0.46146250122825
C         0.23590000000357   -1.68139999999500    2.96030000002182
C        -1.07901903770440   -2.07057211608804    3.20989623169553
C         1.09303669916301   -1.62906013253356    4.06602566863802
C        -1.57861502062781   -2.28045162626718    4.49209415939396
H        -1.76036503696667   -2.22694408114124    2.38616730231722
C         0.56774259505514   -1.86394539173811    5.36573698142032
C         2.50314999790990   -1.39117676694121    4.25569521605030
C        -0.76276325042410   -2.17117419945758    5.59934485800095
H        -2.61894932696876   -2.54799358194722    4.61708089276014
N         1.57130291060429   -1.73278869239869    6.28795856820402
C         2.75421007973783   -1.48771704417147    5.64753803530741
C         3.56351778629827   -1.10001613284351    3.40328702226869
H        -1.12526591765879   -2.33446941005234    6.60260309405972
O         1.44976926893877   -2.12128309614648    7.60485164406890
C         4.01569175920850   -1.28448277611732    6.18539042213803
C         4.82679793152444   -0.88490479296743    3.93350743099760
H         3.38055829477377   -1.00095786924461    2.34569108399804
Si        1.72901141418228   -3.68761424557486    8.14590132772769
C         5.04025962951880   -0.98186098832666    5.31285546940547
H         4.17684764418937   -1.34582337832647    7.24998517161285
C         5.98145713808756   -0.53826660591635    3.03266698627437
C         3.54487796114006   -3.89534820642643    8.68914858270636
C         0.55429809081906   -3.76696915052919    9.63666852967217
C         1.32184715844845   -4.93996395511449    6.77133782259787
H         6.03087733481179   -0.80044880895748    5.70441021541555
C         6.95639246647589   -1.70855508894324    2.88261387347328
H         6.52315795150975    0.31618853606585    3.44636529678762
H         5.58565696318351   -0.24878967777567    2.05865204886547
H         3.84610671837873   -3.10263511073508    9.36855983171420
H         4.22481468172197   -3.88137231641633    7.84164701952162
H         3.68807981744197   -4.83840995996884    9.20691274004522
H         0.67406574410281   -2.89536871336793   10.27225612706447
H         0.75550704129159   -4.64741223787839   10.23677465264964
H        -0.48543702557415   -3.80797223338213    9.32758810161407
H         1.95500686328920   -4.77538540507379    5.90261970279453
H         0.29148113813785   -4.84537004606375    6.43978735910475
H         1.47287736125251   -5.96310886678771    7.09868176744058
H         7.38462680539780   -1.97382852704827    3.84666179581934
H         7.76640694701585   -1.44375395390509    2.20641652459441
H         6.44500487881204   -2.58406145708857    2.48914352102784
