98
 energy: -142.266252769651 gnorm: 0.000210946093 xtb: 6.4.1 (1a32961)
N        -0.92711569911667   -1.98379052266669   -0.40895415478646
C        -2.14101667974942   -1.43856175355771   -0.62541254639449
C        -2.97220016338245   -1.91486839615904   -1.64651533734556
C        -2.54997787022856   -2.95426954834037   -2.44601555638440
C        -1.29441131708943   -3.50932704370899   -2.20945256129074
C        -0.53082473119976   -2.98836630743926   -1.18625949464824
H         0.44717133465545   -3.39069692652617   -0.96216867286742
H        -0.92444514706657   -4.32506721066602   -2.80907134266621
H        -3.93837661289241   -1.47030401494074   -1.81996409414101
C        -2.51523564589904   -0.33942282570509    0.25494066183488
N        -1.57900688908347    0.06594223882441    1.14100509613238
C        -1.88053033689563    1.05660936952813    1.97793560705754
C        -3.09892393418278    1.70432808078544    1.98565630775901
C        -4.06967032648661    1.30708735250623    1.06917527295655
C        -3.77055907990342    0.27861552850774    0.20181993978022
H        -4.51132709058831   -0.04699888947414   -0.50933807989913
H        -3.29007661215383    2.49644597292881    2.69138837074419
H        -1.09320666472497    1.33974601873050    2.65917730744579
Ir        0.42150000000003   -0.81650000000003    0.91329999999998
H         0.87260000000003   -2.23030000000005    1.54050000000008
B         0.45893181505700    0.58148415147239   -0.63628063759645
O        -0.14838378110570    0.26868934962220   -1.84013476201655
C        -0.21125969336560    1.42763446254932   -2.67602901904233
C         0.08933197609283    1.03367007160880   -4.12010900500449
H         1.01845413416383    0.47669605867925   -4.18042769114933
H         0.15191546258126    1.92015853876154   -4.74599815656936
H        -0.71222674268096    0.39812348798222   -4.48928785702966
C        -1.64703674037308    1.96529022657815   -2.58870396819614
H        -1.78367704045305    2.82794827575695   -3.23393341601527
H        -2.33126511863870    1.17777484117495   -2.89878529967399
H        -1.88432136235068    2.23299134171266   -1.56098215280382
C         0.83700239970212    2.38232833029641   -2.01525788506247
O         0.91612550249575    1.87859926519701   -0.67496564447579
C         2.23457967605555    2.23110335443835   -2.62832193062895
H         2.54289571200945    1.19108238327407   -2.55421188368910
H         2.25413716517800    2.56517095495986   -3.66174768204059
H         2.93692100547846    2.82746008470253   -2.05048923355325
C         0.44433240018930    3.85845873811044   -1.99641913583798
H        -0.45292364618597    4.02096449179458   -1.40727914870180
H         1.25075088568917    4.43568232952853   -1.55030534415636
H         0.28123851731321    4.21262398036840   -3.01118205694841
B         1.58494852613123    0.64110444117155    1.85544753835195
O         2.95616546831327    0.72125204604192    1.92250260266256
C         3.35044858228228    2.01564121424938    2.39750889924038
C         4.55147732889873    1.88161291752097    3.33255907883337
H         4.35058124311498    1.17661200475487    4.13260701815986
H         5.40441789992005    1.51553405675161    2.76642287305975
H         4.80369656666245    2.84966689986638    3.75707381677920
C         3.75219151623442    2.82732568868032    1.16015684181378
H         4.05151543558771    3.83751847765461    1.42316915472928
H         4.58601638405961    2.32703504998167    0.67287601701138
H         2.91786725417046    2.84201370558766    0.46377810048437
C         2.04102768027897    2.55031273372010    3.07365251287348
O         1.02388151549260    1.72511487834380    2.49193999792550
C         1.72304987994459    4.01623281446712    2.78242507781622
H         1.54697897103781    4.16268381803697    1.72203679989001
H         0.82120528913441    4.29908969130887    3.31971456012957
H         2.54062668934445    4.65135470085858    3.11224402271111
C         2.00456023067870    2.31858202812538    4.59000583105438
H         2.17181030124970    1.26876276877051    4.81596614738050
H         2.74796017214039    2.92623991731399    5.09663447605781
H         1.01871557877707    2.58726068203543    4.96258873472825
B         2.27820000000022   -1.33089999999968    0.17409999999980
O         3.06575156146673   -2.35377676676552    0.66381690201018
C         4.36032352681773   -2.32379472784819    0.05147079085883
C         5.30447638092298   -1.66148076255358    1.06091131831396
H         4.90412296935984   -0.68814956988528    1.33067139304890
H         5.33039080814911   -2.27246261890618    1.95983321902989
H         6.31155095179896   -1.56850016525727    0.66622108041083
C         4.83034255054168   -3.75237555511627   -0.22148183549686
H         4.94735205758985   -4.26886584345604    0.72758306423573
H         5.78721646919064   -3.73880924014144   -0.73579555687498
H         4.10706899014744   -4.30071318360010   -0.81571788126683
C         4.11712987774045   -1.44741769588159   -1.22663638021379
O         2.89672579261780   -0.75922088374291   -0.91496345152548
C         5.21372483282273   -0.42495933344188   -1.51928314590207
H         6.16951481118322   -0.92453069476852   -1.65138616758478
H         4.96865018303130    0.11168458985113   -2.43248603913850
H         5.28372013603520    0.29555429294482   -0.71188960165040
C         3.85709143385305   -2.27926445595797   -2.49027395812247
H         3.05269396523404   -2.98803168991610   -2.31377855086714
H         3.54416340032286   -1.61003646714150   -3.28839275281853
H         4.75332977310041   -2.80675429981232   -2.80244581659676
H        -3.17970279199917   -3.32888685472805   -3.23873149978174
H        -5.03488480750572    1.78966256919305    1.03912230777838
C         0.23589999999998   -1.68139999999992    2.96029999999950
C        -0.94454347975577   -2.13442229284683    3.53406926846242
C         1.13378183770763   -1.45804933175332    4.02030361848112
C        -2.21872430668584   -2.59298473232056    2.91723362913220
N        -0.80013663819242   -2.13644562139156    4.88576705228955
C         0.46966218995451   -1.72654601389388    5.20964120845311
H         2.15420749734490   -1.14622591948969    3.92439659147024
H        -2.56799613067561   -3.50693772719738    3.39652798904147
H        -2.06342441294660   -2.78703500491979    1.86074678341311
H        -2.99797675978901   -1.83609070281838    3.01967796582232
H        -1.50760958956646   -2.40120895133795    5.55210424359569
C         0.93067645829440   -1.63497469861291    6.51723588986739
N         1.32692788165132   -1.55013823755993    7.59700258275517
