21
 energy: -31.053031369163 gnorm: 0.000167675492 xtb: 6.4.1 (1a32961)
C         1.38420921730184   -0.16766731674175    0.00947310511996
C         0.85088296640726    1.10860299395143    0.01760659997201
C        -0.52224163765579    1.29192536950141   -0.00106121285283
C        -1.36285621931458    0.19050011615531   -0.04012347378062
C        -0.83342902891248   -1.08590037492784   -0.05540939214513
C         0.54680250273979   -1.28099627553664   -0.02212684704743
C         1.08187932851359   -2.65078066079786   -0.03463725909776
N         0.33685761572764   -3.56940433078356   -0.65075834506138
C         0.76912124382101   -4.81502520226273   -0.70077898651189
C         1.96481274335455   -5.23583629368586   -0.13800330554880
C         2.73616880784511   -4.29168006463025    0.52340144465129
C         2.29324022981221   -2.98221040481538    0.57760681570052
H         2.45656121351907   -0.29615326237799    0.00318709774585
H         1.50983204885087    1.96457395721345    0.03683031188471
H        -0.93516574832677    2.28990366355272    0.00951392825252
H        -2.43395282577668    0.32879171445086   -0.06083534036360
H        -1.47602455622820   -1.95189902692100   -0.09206849246775
H         0.11968743563813   -5.50769539626762   -1.22173625580671
H         2.27659024821864   -6.26594456401670   -0.20905810317651
H         3.66785387276377   -4.57355221992640    0.99269746081182
H         2.86292054170101   -2.23242242113362    1.10368024972174
