105
 energy: -151.596486412108 gnorm: 0.000304131987 xtb: 6.4.1 (1a32961)
N        -0.88917457509788   -1.98674591249555   -0.44295556347669
C        -2.14212283464719   -1.51549093533709   -0.58349006175681
C        -2.97352341498179   -1.97450862350181   -1.61220326434540
C        -2.51317833412672   -2.93069361673138   -2.49081222508049
C        -1.21992499377172   -3.41914924651004   -2.32522332289476
C        -0.45651660901682   -2.91230966513093   -1.29445322247485
H         0.55453360180076   -3.25726962763706   -1.13062284165949
H        -0.81948503055475   -4.17070243525452   -2.98596887404163
H        -3.96718972400458   -1.57572483260546   -1.73352820935393
C        -2.56099543145393   -0.49733344822725    0.37285055303582
N        -1.60950171563718   -0.02168452873726    1.20280928142635
C        -1.94324339197607    0.91746087252840    2.08470565507562
C        -3.21862549954173    1.43016466196493    2.20665528724460
C        -4.21437596848059    0.94116028825983    1.36570819373599
C        -3.87725444532765   -0.02517114924524    0.44253240822525
H        -4.63564484879816   -0.42262585710480   -0.21134124160674
H        -3.43281935662971    2.18446040956430    2.94630955719490
H        -1.13704013516914    1.26920550406448    2.70985841336334
Ir        0.42150000000019   -0.81649999999998    0.91329999999961
H         0.87260000000015   -2.23030000000021    1.54050000000031
B         0.36515279219890    0.66561647112477   -0.56018161341575
O        -0.36740327592629    0.46185526801935   -1.71787353118709
C        -0.51767152330109    1.69714493983080   -2.42501000619754
C        -0.41004523363242    1.45112248447312   -3.92765611814272
H         0.49294758388201    0.89869696354661   -4.16515639676097
H        -0.41037759071639    2.39809902743107   -4.46135999197119
H        -1.26425334442720    0.86263786157701   -4.25416904390622
C        -1.92074420694277    2.23015080936935   -2.09892578479945
H        -2.12787960815275    3.14991309989555   -2.63780242489936
H        -2.65377467937718    1.47824920774894   -2.38510510967395
H        -2.01506694978924    2.40152084784043   -1.02832457802288
C         0.61938659254238    2.57817793663492   -1.81302872121179
O         0.83725304113496    1.95809162928494   -0.53848244695344
C         1.93574228374491    2.46116900634057   -2.59086823259584
H         2.21463152503091    1.41272693088613   -2.66557435377758
H         1.85387172499604    2.90622267856696   -3.57823643257184
H         2.71606820786492    2.97346445489695   -2.03292008524931
C         0.26476707370176    4.05169319441517   -1.62449713121014
H        -0.54894895100977    4.17233849550018   -0.91600929366670
H         1.13253446874309    4.58101482774328   -1.23808641202201
H        -0.01634772562234    4.49124408699786   -2.57812244203915
B         1.54742431337853    0.65052608551850    1.88541197149637
O         2.91007620139227    0.82273897811895    1.88491574457984
C         3.24974938026638    2.08663515185446    2.47484916542761
C         4.50670098279045    1.93829242392037    3.33085926537978
H         4.39841863467051    1.13399244753124    4.05076066919228
H         5.35030048031596    1.70350680391336    2.68696493318053
H         4.71338152209714    2.86862542139501    3.85298398264061
C         3.53109556690318    3.04738610000514    1.31357976405609
H         3.77692305042800    4.04334099004059    1.66950267888122
H         4.36914440280711    2.66006403916603    0.73842325086112
H         2.66224899158020    3.07549296622938    0.66126964504042
C         1.95059198267269    2.45672780265871    3.26965833258084
O         0.95495089666672    1.63096224476270    2.65065111601578
C         1.52685906128532    3.92061879453989    3.16387447420869
H         1.29452295226400    4.17762743157575    2.13588774216873
H         0.63390806845943    4.07619634458763    3.76448777310224
H         2.31614289056102    4.56826648164000    3.53586723693939
C         2.01339453321903    2.05582471043682    4.74933659852316
H         2.26188261294685    1.00200877138070    4.83898522175055
H         2.74053287599493    2.65638845324401    5.28709742674450
H         1.03218257831091    2.20654644349745    5.19376621357516
B         2.27819999999860   -1.33090000000041    0.17409999999990
O         3.17818811761486   -2.20165099457082    0.74913179599646
C         4.43391909334816   -2.15399182634594    0.05894980385383
C         5.38139666506318   -1.32517752984321    0.93294667165755
H         4.92004196619188   -0.36340218632325    1.13729577704289
H         5.51461474038538   -1.84073362728066    1.88074731981813
H         6.35027756255038   -1.19630819536118    0.46082298492477
C         4.98908597599138   -3.57158190515331   -0.08309013340648
H         5.18834667957913   -3.96961606350877    0.90833022441251
H         5.91595648838269   -3.55494736620741   -0.64948239812317
H         4.27717741693980   -4.22893026329784   -0.57088769468689
C         4.06491758583730   -1.44729800513443   -1.29484551418414
O         2.78662756247984   -0.85826066027220   -1.01379511997277
C         5.03106963311419   -0.34455761498768   -1.72640984739037
H         6.03222457786195   -0.74553230984187   -1.85735813330779
H         4.69290334181114    0.07191213670074   -2.67193122444420
H         5.04517814281658    0.45311528366704   -0.99179925890046
C         3.87018252546142   -2.42553917081111   -2.46120312184125
H         3.14945218953891   -3.19332956912031   -2.19425159047875
H         3.47509918307459   -1.87656540826081   -3.31252645882001
H         4.81116687396380   -2.88736519577450   -2.74401471170491
H        -3.14212253871254   -3.28970017888109   -3.29116482402181
H        -5.22761911010428    1.30659143710655    1.43474572510594
C         0.23589999999866   -1.68140000000398    2.96030000000059
C        -1.01762262582517   -2.12147938342122    3.38622230992548
C         1.21038078808815   -1.57547537599275    3.95527656647167
N        -1.33563924577514   -2.36717930161350    4.64370416130840
H        -1.82315987806066   -2.30546470339891    2.68330461305255
C         0.88734936861429   -1.81917138055355    5.27659293555368
H         2.22332843025246   -1.32383938209444    3.67655787774143
C        -0.41409927266116   -2.21555251234104    5.59663004295897
H         1.64337816638454   -1.75453992237537    6.04462704495204
C        -0.82020505118708   -2.56300368579491    6.96519182010275
C        -0.16657076326957   -2.05151313046185    8.08544423060756
C        -1.88076652788351   -3.44927862048908    7.15766286085838
C        -0.55209047825381   -2.43153854664416    9.35810077208094
H         0.63803741603516   -1.34165568752232    7.96577976938413
C        -2.26280502255067   -3.82796595816761    8.43002873522449
H        -2.38943923625043   -3.83562983080235    6.28808869682059
C        -1.59569693904946   -3.32501231089934    9.53606385947722
H        -0.03491855971972   -2.02813728683619   10.21689389909866
H        -3.08115546569015   -4.52108240218631    8.56178231966473
H        -1.88874879659773   -3.62578903479107   10.53127666475919
