101
 energy: -147.430547979187 gnorm: 0.000250307919 xtb: 6.4.1 (1a32961)
N        -0.90638752337265   -2.02890977218323   -0.39375807684109
C        -2.16059151603417   -1.56398802411322   -0.54047247409374
C        -3.00255223496640   -2.06680787822144   -1.53993371903633
C        -2.54970616566365   -3.05748940163870   -2.38367092904419
C        -1.25343753374212   -3.53611407752180   -2.21333385609214
C        -0.48054736380242   -2.98744983579820   -1.21120444455831
H         0.53231417122234   -3.32499723438209   -1.04260341151405
H        -0.85861907704273   -4.31268342355166   -2.84804437472516
H        -3.99937512221725   -1.67737569160201   -1.66554602942224
C        -2.57021519099395   -0.50711904498627    0.37799466307535
N        -1.61548661667172   -0.01048266113851    1.19135046819544
C        -1.94111233264837    0.96118550684610    2.03922512459836
C        -3.21140904978853    1.49164454825885    2.13949071185861
C        -4.21002740927686    0.98428735833748    1.31318611066021
C        -3.88151110079720   -0.01872457161839    0.42674979215616
H        -4.64299908309264   -0.43001128524429   -0.21484552590836
H        -3.41983530153668    2.27370023291375    2.85156084641736
H        -1.13183844729017    1.32489222884712    2.65340443987252
Ir        0.42150000000012   -0.81649999999993    0.91329999999973
H         0.87259999999999   -2.23030000000019    1.54050000000018
B         0.36218656579447    0.61687352361886   -0.60292346069631
O        -0.32838031686409    0.34677551611017   -1.77285419388055
C        -0.46711790223690    1.54272910039819   -2.54646896019809
C        -0.29592129029981    1.22174169372188   -4.02890051886587
H         0.61900425351371    0.66378073870842   -4.19804758419564
H        -0.27776487527178    2.13977311995952   -4.61054052812281
H        -1.13263111719468    0.61143258206046   -4.36059142381088
C        -1.88850842002934    2.07075483869973   -2.30211288444626
H        -2.08549185100112    2.95973391046782   -2.89387676297516
H        -2.60014185537483    1.29514041637920   -2.57865455391131
H        -2.02681083382210    2.29328911507787   -1.24574648658093
C         0.63402776093438    2.46979478061211   -1.93692239915952
O         0.80911904399283    1.91853807244946   -0.62456672970312
C         1.98156272376319    2.33024456757939   -2.65569512758232
H         2.27600660605058    1.28341585217422   -2.65943613686052
H         1.93408257872414    2.71885284621221   -3.66888936214352
H         2.73254310264392    2.88395183278610   -2.09711569064280
C         0.25501492475395    3.94606117519982   -1.83949765531749
H        -0.59079331045515    4.09207356828298   -1.17478602398870
H         1.09886873261594    4.50532746588485   -1.44262737074652
H         0.01190249584191    4.33318504150368   -2.82579925708426
B         1.55159903977764    0.66805629938969    1.84920019767547
O         2.91480945817749    0.84474619217146    1.83666598218164
C         3.25162745546285    2.12628009441728    2.38803309489418
C         4.51983206853052    2.01166334989986    3.23253137783987
H         4.42886310316463    1.22338460624603    3.97240019349737
H         5.35897797862385    1.77186668739785    2.58455861592159
H         4.72183877048860    2.95625308664174    3.73025224182649
C         3.51045921067303    3.05809307167826    1.19831229631711
H         3.75401585132545    4.06479893320392    1.52454900211606
H         4.34313479890278    2.66124869739833    0.62193086973434
H         2.63251368569458    3.06269393796282    0.55763368858042
C         1.95897235214557    2.50765796951083    3.18725940798385
O         0.96162768961830    1.66492553604123    2.59503939234418
C         1.52785166530718    3.96726231711853    3.05485427766247
H         1.27938684164446    4.19975600631025    2.02480708640210
H         0.64321577964684    4.13335662515991    3.66489564487485
H         2.31979510563893    4.62629804621082    3.40027690766180
C         2.03952600270145    2.13805800863271    4.67414062651818
H         2.29903725029857    1.08883202114916    4.78288226209575
H         2.76563235373745    2.75669761113571    5.19254297439696
H         1.06123441271394    2.28806628145882    5.12513951343609
B         2.27819999999822   -1.33089999999859    0.17410000000034
O         3.14476481117777   -2.23673981078726    0.74831556189605
C         4.42302813226719   -2.18984378631173    0.10234329978723
C         5.35556878151177   -1.41363030406987    1.03869704447646
H         4.90671498684298   -0.45019067042695    1.26202954983494
H         5.44434514469472   -1.96628105349072    1.97068006362496
H         6.34323308868623   -1.28851055094357    0.60616466089610
C         4.95412863562404   -3.61323244638945   -0.07182146009441
H         5.10306508982263   -4.05210400023374    0.91121509462414
H         5.90405919240042   -3.59713676868443   -0.59849535728296
H         4.24938615055326   -4.23555713231981   -0.61299093765708
C         4.11347747407007   -1.42688523323040   -1.23608290047410
O         2.83182756007805   -0.83249278588469   -0.98188849826085
C         5.10748693533261   -0.31971169088894   -1.58534958900233
H         6.10865618553178   -0.72713903429098   -1.69425795724979
H         4.81016946114411    0.13938442693251   -2.52481004238166
H         5.10087539609754    0.44657270863953   -0.81810357904065
C         3.95452129661092   -2.35561876545986   -2.44738205191475
H         3.20999197236941   -3.11975103675744   -2.24279572193185
H         3.60668999694974   -1.76679743912962   -3.29271321036883
H         4.89959326689448   -2.82262249469655   -2.70746126278794
H        -3.18699835783314   -3.45036286712706   -3.16128604539958
H        -5.21922986936180    1.36389745136141    1.36490996920986
C         0.23589999999788   -1.68140000000353    2.96030000000055
C        -1.03311840849495   -2.10513743305877    3.32626004739002
C         1.20301200152283   -1.49535180837323    3.95798290089114
C        -1.35802887462807   -2.24292599064443    4.67297817668490
H        -1.79415614474746   -2.34292817137798    2.59839880962603
C         0.90752970526466   -1.62962511863937    5.30102814127153
H         2.20934735174847   -1.24681939786317    3.65833281982093
C        -0.38129500258290   -1.99031369038764    5.65719724238340
N        -2.57529777756659   -2.63178176714632    5.16861136102336
H         1.65924512173632   -1.47169934263328    6.06000085583659
S        -1.06376122773701   -2.25613892804332    7.23760650346343
C        -2.59490279355400   -2.68956066966036    6.44208910763642
C        -3.76167051613585   -3.08753820787831    7.26009182587239
H        -4.01050136946667   -2.29999853487545    7.96932741989065
H        -3.52849131606632   -3.98839058029672    7.82616744454748
H        -4.60931403178651   -3.27701444229429    6.60761401195978
