19
 energy: -29.876526670908 gnorm: 0.000188738521 xtb: 6.4.0 (f63f532)
C         1.06544222593430    1.20330391235953   -0.14508814813734
C         2.43588631889690    1.16134679834877   -0.00745395155295
C         3.09615332417329   -0.05174647006237    0.21561559406161
O         4.44311861224627    0.02498658934683    0.33013968014921
C         5.19455688742486   -1.16110632511793    0.55213468934328
C         6.66378941467181   -0.77209996301525    0.61195139989588
C         2.34977252935972   -1.22480457362558    0.30188518065062
C         0.97231304108297   -1.18476304312387    0.16275207810886
C         0.34217777675769    0.02381898311132   -0.06025891066948
Br       -1.56341297843997    0.07123363402409   -0.25785756468347
H         0.56204513440772    2.14160694627207   -0.31712606354625
H         3.02392955853267    2.06262245443208   -0.07011417573964
H         5.02139268354924   -1.87040923431919   -0.26806768553802
H         4.88314913400723   -1.62550413964045    1.49723930009136
H         6.96526372319067   -0.31541509481638   -0.32675346857158
H         7.26851479205870   -1.65599449568479    0.79108378978727
H         6.82597707185779   -0.05730952888069    1.41377411820725
H         2.82398497650123   -2.17677514271429    0.47603742726188
H         0.39762577378709   -2.09560130689371    0.22812671088158
