17
 energy: -30.414218713991 gnorm: 0.000158334804 xtb: 6.4.1 (1a32961)
S        -0.81689967945872   -1.05272681187229    0.47957749893763
C         0.27355966657850    0.24917173190444    0.16407398874544
Cl        1.96269880533863    0.02820666469537    0.30762618089370
C        -0.36171834642177    1.40663648422880   -0.19234002075095
C        -1.75532754342084    1.25123118415950   -0.21755897393372
C        -2.16989149722212   -0.01432451375186    0.11769644338690
C        -3.50973861417211   -0.58546898864572    0.20700083189047
O        -3.67683889573262   -1.74493293285388    0.53975410216292
C        -4.64826870232776    0.34918757830832   -0.13792623808773
C        -6.00393865870021   -0.34124188016445   -0.05572649364367
H         0.15281954783530    2.31988194374845   -0.42530468110923
H        -2.42691045999205    2.04898737909516   -0.47461087360032
H        -4.47893533293051    0.73351562025495   -1.14550434339926
H        -4.61132173281352    1.19373341516811    0.55331979395218
H        -6.04238838718534   -1.18073221120288   -0.74557648750864
H        -6.79799300536909    0.35733277283063   -0.30502408256995
H        -6.17195716400582   -0.72453743590268    0.94761335463436
