111
 energy: -157.909053764796 gnorm: 0.000286329944 xtb: 6.4.0 (f63f532)
N        -0.96510000000001   -2.11530000000008   -0.24090000000001
C        -2.24700000000000   -1.69839999999996   -0.36219999999999
C        -3.14040000000001   -2.36820000000009   -1.21200000000009
C        -2.70220000000001   -3.47560000000009   -1.93049999999999
C        -1.37780000000002   -3.89880000000000   -1.78760000000007
C        -0.54290000000001   -3.18670000000000   -0.93509999999990
H         0.49810000000000   -3.45630000000000   -0.78940000000002
H        -0.99570000000001   -4.76029999999999   -2.32770000000000
H        -4.16500000000000   -2.02890000000000   -1.31830000000000
C        -2.62130000000000   -0.50950000000004    0.44100000000000
N        -1.62600000000001    0.07330000000000    1.16019999999999
C        -1.89680000000000    1.15240000000003    1.91690000000002
C        -3.17229999999999    1.70329999999997    1.99649999999999
C        -4.20510000000000    1.11739999999997    1.26270000000002
C        -3.92609999999999    0.00249999999999    0.47820000000000
H        -4.71960000000000   -0.46420000000000   -0.09520000000000
H        -3.34630000000000    2.57509999999999    2.62070000000000
H        -1.04450000000000    1.57420000000000    2.43690000000000
Ir        0.42150000000000   -0.81650000000000    0.91330000000000
H         0.87260000000000   -2.23030000000000    1.54050000000000
B         0.50670000000000    0.41559999999993   -0.81540000000001
O         0.19500000000000   -0.04700000000002   -2.09150000000002
C         0.00650000000001    1.10039999999989   -2.95429999999993
C         0.49020000000002    0.74740000000022   -4.35780000000000
H         1.51610000000002    0.37380000000001   -4.33700000000000
H         0.44730000000000    1.62239999999995   -5.01670000000002
H        -0.14740000000000   -0.03390000000000   -4.78429999999998
C        -1.50119999999998    1.39559999999997   -2.96669999999995
H        -1.75369999999999    2.21459999999989   -3.64849999999999
H        -2.03200000000003    0.49449999999999   -3.28929999999999
H        -1.85169999999999    1.65210000000000   -1.96220000000001
C         0.84230000000001    2.20669999999997   -2.22039999999998
O         0.75200000000001    1.78259999999990   -0.83689999999999
C         2.32930000000001    2.18620000000008   -2.59899999999991
H         2.74130000000002    1.18499999999996   -2.45750000000000
H         2.48870000000000    2.51300000000000   -3.63179999999999
H         2.87200000000001    2.86270000000000   -1.93199999999998
C         0.28440000000000    3.62290000000006   -2.33659999999998
H        -0.72649999999998    3.69040000000000   -1.92910000000001
H         0.92130000000002    4.31480000000001   -1.77610000000006
H         0.26430000000000    3.94810000000000   -3.38320000000007
B         1.56299999999999    0.60959999999998    1.84840000000000
O         2.92780000000000    0.55230000000000    2.15020000000000
C         3.36330000000000    1.88660000000002    2.50260000000003
C         4.53140000000000    1.78590000000002    3.47740000000002
H         4.27910000000000    1.16090000000003    4.33690000000000
H         5.39390000000001    1.33790000000001    2.97340000000000
H         4.82390000000000    2.77870000000004    3.83820000000000
C         3.79700000000002    2.56849999999999    1.19670000000006
H         4.20020000000001    3.57089999999999    1.37679999999999
H         4.56740000000002    1.95560000000000    0.72110000000000
H         2.95240000000001    2.63260000000000    0.50540000000000
C         2.05039999999999    2.50089999999996    3.09320000000009
O         1.03750000000000    1.81619999999999    2.31910000000002
C         1.89099999999998    4.00450000000000    2.88650000000004
H         1.87290000000000    4.25439999999999    1.82409999999997
H         0.94939999999999    4.34260000000000    3.33170000000003
H         2.71080000000000    4.55149999999996    3.36630000000000
C         1.82470000000002    2.13200000000000    4.56519999999999
H         1.92610000000000    1.05330000000000    4.71320000000000
H         2.52610000000000    2.65280000000000    5.22540000000000
H         0.80630000000000    2.41580000000001    4.84900000000001
B         2.27820000000001   -1.33090000000002    0.17410000000000
O         2.89460000000000   -2.57740000000001    0.38450000000000
C         4.26930000000000   -2.48200000000001   -0.07209999999996
C         5.10900000000001   -2.05379999999997    1.14010000000001
H         4.76350000000000   -1.08740000000000    1.51750000000001
H         4.98050000000000   -2.79470000000002    1.93590000000000
H         6.17420000000001   -1.99290000000000    0.89300000000001
C         4.71950000000000   -3.84659999999997   -0.58470000000004
H         4.75280000000001   -4.56130000000000    0.24420000000000
H         5.72330000000001   -3.78370000000000   -1.02010000000000
H         4.03500000000000   -4.23599999999999   -1.34169999999998
C         4.16440000000000   -1.36219999999998   -1.16300000000000
O         3.08520000000000   -0.55030000000001   -0.65400000000001
C         5.40719999999999   -0.48869999999999   -1.31550000000000
H         6.27320000000000   -1.09010000000000   -1.61530000000000
H         5.23300000000000    0.26930000000001   -2.08589999999999
H         5.64270000000000    0.02649999999999   -0.38240000000000
C         3.71800000000001   -1.89830000000004   -2.53110000000000
H         2.82530000000001   -2.52159999999999   -2.42740000000000
H         3.46090000000001   -1.05249999999997   -3.17550000000001
H         4.50570000000000   -2.48290000000000   -3.01789999999999
H        -3.38499999999999   -4.00130000000002   -2.59310000000000
H        -5.21399999999999    1.52079999999999    1.29960000000000
C         0.23590000000002   -1.68139999999999    2.96030000000000
C        -1.00936741737160   -2.16096385874730    3.36196145056971
C         1.24698322617454   -1.64692398553508    3.92096239385876
C        -1.23886538727995   -2.57545262352119    4.66767869376799
H        -1.82210683698925   -2.24694640363646    2.64964816337234
C         1.02362248004056   -2.06098109369581    5.22496668762982
H         2.23680378350398   -1.32209125731675    3.62827545190776
C        -0.21904861096095   -2.55612557121475    5.61415192839318
H        -2.21662618419353   -2.95461895474947    4.94264036689653
H         1.83475348689293   -2.04235432871674    5.94360070204587
C        -0.39328954480717   -3.18506927123985    6.97104571813328
C         0.01428961872621   -4.66329703067915    6.87943874376954
H         0.24531513113218   -2.68375970645856    7.70467039914171
H        -1.43236503268876   -3.10594172883674    7.30421568126676
C         0.01805754074180   -5.34330204207061    8.21924301753739
H        -0.67573573533935   -5.18063819929221    6.20587253775604
H         1.02239542675848   -4.72693817322201    6.46134747396262
N         1.21684685194987   -5.60343964410319    8.74764852248854
C        -1.16350754847883   -5.68348423020194    8.87316509810167
C         1.27321939065005   -6.21083188677845    9.92994394529586
C        -1.09466117615208   -6.31368779162441   10.10610299941768
H        -2.11824129782366   -5.46335017729866    8.41559679574965
C         0.15250796134093   -6.58788149609828   10.64946716714829
H         2.27381311128749   -6.39929791602282   10.30126396010411
H        -1.99876456302634   -6.59171573128619   10.63283608658021
H         0.25158117629711   -7.08357770546689   11.60477593550081
