105
 energy: -151.593522775622 gnorm: 0.000762491402 xtb: 6.4.1 (1a32961)
N        -0.90898044185257   -2.04783633234190   -0.37836720103682
C        -2.16982262258444   -1.59729639321495   -0.51730155636550
C        -3.01635341233897   -2.11960091271888   -1.50331163858822
C        -2.55987109565395   -3.11106784695915   -2.34369717570798
C        -1.25553317782058   -3.57225719388079   -2.18336922578893
C        -0.47990431108471   -3.00754335878721   -1.19251857027708
H         0.53864131941453   -3.33145502302696   -1.03121805602543
H        -0.85739290995317   -4.34797036228389   -2.81702148428181
H        -4.01964955366959   -1.74414823718804   -1.62148044531547
C        -2.58024722681068   -0.53677628688487    0.39511395477024
N        -1.62395266999612   -0.02985374123084    1.20159215618398
C        -1.95185141944821    0.94223811515280    2.04875604214367
C        -3.22468941219719    1.46492679924293    2.15355399358449
C        -4.22438764266496    0.94982708061795    1.33197339043322
C        -3.89455025967838   -0.05506176658217    0.44833977672230
H        -4.65678692099302   -0.47364733209500   -0.18807508858962
H        -3.43549444544143    2.24661625193220    2.86526832785024
H        -1.14220392155331    1.31090529127291    2.65910801210908
Ir        0.42150000000008   -0.81649999999985    0.91329999999989
H         0.87260000000004   -2.23029999999999    1.54049999999996
B         0.34589326031829    0.60961025244631   -0.60992763915466
O        -0.36171093003230    0.32232196734903   -1.76597462799254
C        -0.50563969325417    1.50398542832233   -2.55977278173984
C        -0.34800710789671    1.15610705725403   -4.03768563626002
H         0.56453386188638    0.59344902120436   -4.20484196380664
H        -0.33309127441896    2.06344645152457   -4.63629619555568
H        -1.18852629689388    0.54141213346638   -4.35162654176525
C        -1.92412186560162    2.03882315208994   -2.31334089401850
H        -2.12403782111674    2.91799933631971   -2.91870882874919
H        -2.63966621834127    1.26033674326848   -2.57148436811371
H        -2.05411453560703    2.27988748267419   -1.25997108568344
C         0.60311267654303    2.43996690366478   -1.97771121427549
O         0.79413564913041    1.91002351296076   -0.65900770437713
C         1.94215027039376    2.28871629429586   -2.70963631052130
H         2.23706376310602    1.24202531331579   -2.69924104540009
H         1.88297554349149    2.66017999946317   -3.72860970979844
H         2.69938115626509    2.85188600702917   -2.16915188820744
C         0.22542364453181    3.91766650589327   -1.89942803422345
H        -0.61450663812896    4.07440792468410   -1.22982802214988
H         1.07281957449351    4.48248315841014   -1.51856542485279
H        -0.02615627119930    4.28992395955394   -2.88933864046090
B         1.54181479561689    0.68119257672189    1.83425525135226
O         2.90362909648000    0.86587350831371    1.82547397216520
C         3.23044750089455    2.15705683269311    2.35985657071441
C         4.49124414457343    2.06030207226308    3.21736333986208
H         4.39481651682726    1.28446297635374    3.96941789742223
H         5.33692890514525    1.81164345827731    2.58145176018846
H         4.68623685044082    3.01384892784051    3.70070422652941
C         3.49652632075923    3.07133909587133    1.15800157500739
H         3.73449004437119    4.08391382541577    1.47010269000713
H         4.33542675715601    2.66832958642543    0.59497825458223
H         2.62423251374398    3.06363163228993    0.50958055099850
C         1.92953542957021    2.54557136741905    3.14216673584351
O         0.94072510547635    1.68961034096937    2.55500185494645
C         1.49473827740060    4.00132560583778    2.98218446510764
H         1.25067289969569    4.21465135583936    1.94684904500263
H         0.60697324987541    4.17635928541770    3.58505823399405
H         2.28332036526157    4.66881295864282    3.31893137083434
C         1.99757664248957    2.19798412814624    4.63481557315688
H         2.25573497887042    1.15031089209331    4.76022189303927
H         2.71881706023753    2.82466738023846    5.15036256751575
H         1.01533219440750    2.35367720335400    5.07490783547261
B         2.27819999999910   -1.33089999999989    0.17409999999910
O         3.16073307678066   -2.21427660100838    0.75707315071268
C         4.43237782847571   -2.16129247649338    0.09863942746060
C         5.35887833567976   -1.34453005311627    1.00588249285930
H         4.89426402526750   -0.38405688668581    1.20879423138232
H         5.46590290871720   -1.87098440164040    1.95091024817906
H         6.34024961145882   -1.21301369104027    0.56095574274695
C         4.98898079899621   -3.57806768920635   -0.04580693381529
H         5.16046041939430   -3.98793555111964    0.94589022527192
H         5.93107558671985   -3.55667992581136   -0.58649330981685
H         4.28980769882754   -4.22836827271750   -0.56060601576558
C         4.09697809829187   -1.43784017994225   -1.25516194356889
O         2.81288426171772   -0.84991338758199   -0.99871436893949
C         5.07535115282810   -0.33151770040342   -1.64804377620447
H         6.07970318724578   -0.73184392260162   -1.75454755011029
H         4.76463564877178    0.09595004661783   -2.59808154108984
H         5.06845820277897    0.45735057522234   -0.90398589513554
C         3.93038755742194   -2.40183246450356   -2.43746682688161
H         3.19990396847922   -3.16968285129326   -2.19870151014691
H         3.56025444280211   -1.84177522044096   -3.29282611424562
H         4.87701020971295   -2.86396981610905   -2.70061307360886
H        -3.20034098412386   -3.51794614793024   -3.11153825664519
H        -5.23566714402132    1.32394289048881    1.38716676310437
C         0.23589999999906   -1.68140000000249    2.96030000000065
C        -1.04377514187018   -2.07369360111649    3.33108150780496
C         1.18353889790311   -1.47995140608081    3.96142771148326
C        -1.41736551083862   -2.15239277559237    4.67335621551269
H        -1.76794516924580   -2.34735013036819    2.57615784888622
C         0.83212599276326   -1.58607302848551    5.29777699185296
H         2.19987016557078   -1.24849585555141    3.68116688358222
C        -0.46433592643249   -1.90390649886495    5.65897001422483
C        -2.78749246486873   -2.50891020271302    5.06217537555964
H         1.57468299536348   -1.42227861042080    6.06613548777245
H        -0.75507544824639   -1.97692003907337    6.69532865107649
N        -2.93544933515054   -3.11723855408963    6.24019378746663
C        -3.88903355369324   -2.21091301656160    4.25323411833385
C        -4.14603454316921   -3.46049721682046    6.63697970353899
C        -5.15309791039661   -2.57726073330864    4.67629475802392
H        -3.75231400583726   -1.68218952916236    3.32218810184864
C        -5.29363012392780   -3.22415239082983    5.89572363622554
H        -4.19283265834212   -3.95053597343670    7.60184925716733
H        -6.01946164188012   -2.35745633507247    4.06860526742262
H        -6.26144824839576   -3.52835024161623    6.26185561773027
