107
 energy: -152.603364978008 gnorm: 0.002507284666 xtb: 6.4.0 (f63f532)
N        -0.96510000000000   -2.11530000000000   -0.24090000000000
C        -2.24700000000000   -1.69840000000000   -0.36219999999998
C        -3.14040000000001   -2.36820000000001   -1.21199999999998
C        -2.70220000000002   -3.47560000000000   -1.93049999999999
C        -1.37780000000002   -3.89880000000001   -1.78759999999999
C        -0.54290000000001   -3.18670000000000   -0.93509999999999
H         0.49810000000000   -3.45630000000000   -0.78940000000000
H        -0.99570000000000   -4.76030000000000   -2.32770000000000
H        -4.16500000000000   -2.02890000000000   -1.31830000000000
C        -2.62130000000000   -0.50950000000000    0.44100000000000
N        -1.62600000000000    0.07330000000000    1.16020000000001
C        -1.89679999999999    1.15240000000001    1.91690000000000
C        -3.17230000000000    1.70330000000000    1.99650000000001
C        -4.20510000000000    1.11740000000000    1.26270000000001
C        -3.92610000000000    0.00249999999999    0.47820000000001
H        -4.71960000000000   -0.46420000000000   -0.09519999999999
H        -3.34630000000000    2.57510000000000    2.62070000000000
H        -1.04450000000000    1.57420000000000    2.43690000000000
Ir        0.42150000000000   -0.81650000000000    0.91330000000000
H         0.87260000000000   -2.23030000000000    1.54050000000000
B         0.50670000000000    0.41560000000000   -0.81540000000000
O         0.19500000000000   -0.04700000000000   -2.09150000000000
C         0.00650000000000    1.10040000000000   -2.95430000000000
C         0.49019999999999    0.74740000000000   -4.35780000000000
H         1.51610000000000    0.37380000000000   -4.33700000000000
H         0.44730000000000    1.62240000000000   -5.01670000000000
H        -0.14740000000000   -0.03390000000000   -4.78430000000000
C        -1.50120000000001    1.39559999999999   -2.96670000000000
H        -1.75370000000001    2.21460000000000   -3.64850000000000
H        -2.03200000000001    0.49450000000000   -3.28930000000000
H        -1.85170000000000    1.65210000000000   -1.96220000000000
C         0.84230000000000    2.20670000000000   -2.22040000000000
O         0.75200000000000    1.78260000000000   -0.83690000000000
C         2.32930000000000    2.18620000000000   -2.59900000000000
H         2.74130000000000    1.18500000000000   -2.45750000000000
H         2.48870000000000    2.51300000000000   -3.63180000000000
H         2.87200000000000    2.86270000000000   -1.93200000000000
C         0.28439999999999    3.62290000000000   -2.33660000000000
H        -0.72650000000000    3.69040000000000   -1.92910000000000
H         0.92130000000000    4.31480000000000   -1.77610000000000
H         0.26430000000000    3.94810000000000   -3.38320000000000
B         1.56300000000000    0.60960000000000    1.84840000000000
O         2.92780000000000    0.55230000000000    2.15020000000000
C         3.36330000000000    1.88660000000000    2.50259999999999
C         4.53140000000001    1.78590000000000    3.47739999999999
H         4.27910000000000    1.16090000000000    4.33690000000000
H         5.39390000000000    1.33790000000000    2.97339999999999
H         4.82390000000000    2.77870000000000    3.83820000000000
C         3.79700000000000    2.56850000000000    1.19670000000000
H         4.20020000000000    3.57090000000000    1.37680000000001
H         4.56740000000000    1.95560000000000    0.72110000000000
H         2.95240000000000    2.63260000000000    0.50540000000000
C         2.05040000000000    2.50089999999999    3.09320000000000
O         1.03750000000001    1.81620000000001    2.31909999999999
C         1.89100000000000    4.00450000000000    2.88649999999998
H         1.87290000000000    4.25440000000000    1.82410000000000
H         0.94940000000001    4.34260000000000    3.33170000000000
H         2.71080000000001    4.55150000000000    3.36630000000000
C         1.82470000000001    2.13199999999999    4.56520000000000
H         1.92610000000000    1.05330000000000    4.71320000000000
H         2.52610000000000    2.65280000000000    5.22540000000000
H         0.80630000000000    2.41580000000000    4.84900000000000
B         2.27820000000000   -1.33090000000000    0.17410000000000
O         2.89460000000000   -2.57740000000000    0.38450000000000
C         4.26930000000000   -2.48200000000001   -0.07210000000000
C         5.10900000000001   -2.05380000000000    1.14009999999999
H         4.76350000000000   -1.08740000000000    1.51750000000000
H         4.98050000000000   -2.79470000000000    1.93590000000000
H         6.17420000000000   -1.99290000000000    0.89300000000000
C         4.71950000000000   -3.84660000000000   -0.58470000000000
H         4.75280000000000   -4.56130000000000    0.24419999999999
H         5.72330000000000   -3.78370000000000   -1.02009999999999
H         4.03500000000000   -4.23600000000000   -1.34170000000001
C         4.16440000000000   -1.36220000000000   -1.16300000000000
O         3.08520000000000   -0.55030000000000   -0.65400000000000
C         5.40720000000000   -0.48870000000001   -1.31550000000000
H         6.27320000000000   -1.09010000000000   -1.61530000000001
H         5.23300000000000    0.26930000000001   -2.08590000000001
H         5.64270000000000    0.02650000000001   -0.38240000000000
C         3.71799999999999   -1.89830000000000   -2.53110000000000
H         2.82530000000000   -2.52160000000000   -2.42739999999999
H         3.46090000000000   -1.05250000000000   -3.17550000000000
H         4.50570000000000   -2.48289999999999   -3.01790000000001
H        -3.38499999999999   -4.00130000000000   -2.59310000000000
H        -5.21400000000001    1.52080000000001    1.29960000000002
C         0.23590000000000   -1.68140000000001    2.96030000000001
N        -0.75468776973438   -2.44077915689037    3.53990087156939
C         1.33846901058356   -1.81421105446079    3.79669019112712
C        -2.13692256153221   -2.56297283560259    3.13927502176181
C        -0.31376681752203   -2.96866703349062    4.72079916494349
C         0.99115028002909   -2.59612183479201    4.91260074933958
H         2.30904466612698   -1.39637325562371    3.59277714735166
C        -2.47401568326287   -3.72141209443005    2.23229856744661
H        -2.73881651747808   -2.66015308956710    4.05065949774487
H        -2.43817196365911   -1.63471495860845    2.64617555062936
H        -0.96359177021175   -3.56441165574687    5.33886171150167
H         1.62845157536495   -2.88032043521965    5.73302067682333
C        -3.81794112531836   -3.92852826480019    1.92386557425845
C        -1.52021753413272   -4.57850230171901    1.69376327062094
C        -4.20337332656419   -4.96030229571165    1.08343182875095
H        -4.56485967226874   -3.27006666979612    2.35122458551008
C        -1.90748775728253   -5.61075511473246    0.84992650497350
H        -0.47306016015198   -4.43322559932223    1.92717185925935
C        -3.24476084588382   -5.80232706018774    0.53892493642576
H        -5.25129959917146   -5.10600325799854    0.85488100792347
H        -1.15669008526184   -6.26573897087030    0.42709562033687
H        -3.54127537747029   -6.60273037477111   -0.12660989937640
