101
 energy: -145.438303879340 gnorm: 0.000741160070 xtb: 6.4.1 (1a32961)
N        -0.91953326360247   -1.96499823689556   -0.43424913249975
C        -2.12910966340198   -1.40929684007399   -0.65026053629227
C        -2.93909703226692   -1.83563331913167   -1.70943459221575
C        -2.50392751660074   -2.84205648593727   -2.54336238121937
C        -1.25654924008740   -3.41384644921158   -2.30284267954357
C        -0.51137436789274   -2.93833364910981   -1.24484849245512
H         0.46252931024477   -3.35052088331955   -1.02089690210332
H        -0.87716012065760   -4.20560792046090   -2.92819048479553
H        -3.89710349889264   -1.37494342992095   -1.88675252692810
C        -2.51960588140527   -0.34978943276237    0.27065488086206
N        -1.58424403769458    0.04573913471990    1.16177639497147
C        -1.89836284070596    1.00109880499636    2.03405536084883
C        -3.13065221877503    1.62063560442207    2.07511556094920
C        -4.10323034415845    1.22924841362013    1.15786795398423
C        -3.79076270287611    0.23718684185544    0.25361206297516
H        -4.53371352370793   -0.08780294595213   -0.45570350004596
H        -3.33090294197627    2.38683565710416    2.80666536213381
H        -1.10963363312515    1.27974456040843    2.71567468949388
Ir        0.42150000000008   -0.81649999999990    0.91329999999995
H         0.87259999999992   -2.23029999999992    1.54049999999999
B         0.45653559323573    0.60258324848954   -0.61865402124840
O        -0.17246344374663    0.31995776102289   -1.81969394250392
C        -0.24392848776342    1.49823563584835   -2.62690658080929
C         0.01996524775221    1.13734619437363   -4.08668363645684
H         0.94377734450227    0.57650229514384   -4.18309153616894
H         0.07390481838512    2.03877087506394   -4.69178565108570
H        -0.79457139403812    0.51627187976759   -4.45223595593681
C        -1.67225663377281    2.04651264362861   -2.49286122226275
H        -1.81698948912256    2.92382679917322   -3.11623319460795
H        -2.37072485094871    1.27124638333075   -2.80201089409232
H        -1.88184154304613    2.29425600760692   -1.45410429930170
C         0.82741603232798    2.42788897743666   -1.96810283082534
O         0.92572783074896    1.89608487029515   -0.64024293001875
C         2.21143320892608    2.27350632615999   -2.61070595557325
H         2.50758984067678    1.22813912959994   -2.56665319748935
H         2.21633350358452    2.63119926642030   -3.63639642890424
H         2.93222608424374    2.84722198693090   -2.03251081104410
C         0.45205142733723    3.90758796172725   -1.91263089497681
H        -0.43287437705509    4.06778566572583   -1.30450476850661
H         1.27268394406142    4.46693417112837   -1.46956801974427
H         0.27494015407827    4.28392176626852   -2.91703926290165
B         1.57802699860483    0.64064564347883    1.86268458829969
O         2.94808245534825    0.72928387265511    1.93449280527429
C         3.33372386108088    2.02221355615911    2.42023051488002
C         4.52452700635454    1.88546486432358    3.36821454372125
H         4.31603716854259    1.17516855644001    4.16165574723690
H         5.38473288903352    1.52445442561410    2.80983944495396
H         4.76970805658222    2.85144578044398    3.80149443215176
C         3.74912455793249    2.83984992940131    1.19131205449650
H         4.03799104706078    3.85121235554301    1.46136121241145
H         4.59362773642207    2.34609419818432    0.71572878787129
H         2.92524092581043    2.85100126290358    0.48260549574978
C         2.01560694908109    2.55159115955805    3.08528461368864
O         1.00704933970705    1.71768307113023    2.50183223538605
C         1.68901171708939    4.01339899182135    2.78242860264975
H         1.52366850597980    4.15153339061858    1.71916777735815
H         0.77827178839248    4.29081725867032    3.30748412039225
H         2.49684336660336    4.65781918482474    3.11806373534418
C         1.97011154534126    2.33025389344261    4.60303637524379
H         2.13650482048253    1.28230522709302    4.83808993686187
H         2.71032123586502    2.94155844658564    5.10985326254204
H         0.98206509601663    2.60123820910913    4.96814373009031
B         2.27820000000013   -1.33090000000051    0.17410000000042
O         3.07856807396120   -2.34063827382936    0.66931714055974
C         4.36936721630951   -2.30373098084002    0.04946577178325
C         5.31304088267787   -1.62501543932690    1.04843673952839
H         4.90449610835259   -0.65377028735813    1.31349630596042
H         5.35071024672576   -2.22879165451957    1.95190125358060
H         6.31658547427280   -1.52485459439201    0.64658413964903
C         4.85066356892742   -3.73044301160025   -0.21388392112088
H         4.97969863198455   -4.23747313600385    0.73881957784121
H         5.80333974775351   -3.71259453665659   -0.73582430502715
H         4.12784219118681   -4.29069611003033   -0.79760430537541
C         4.11111289499497   -1.44093057594502   -1.23520387854935
O         2.88471860309986   -0.76346017300633   -0.92431852151166
C         5.19477260710620   -0.40823801687741   -1.54014385017799
H         6.15608603742139   -0.89726940260138   -1.67180933703182
H         4.93958153556075    0.11767216497281   -2.45682394815558
H         5.25880345863922    0.32004026384693   -0.73910579557879
C         3.85578240649346   -2.28596601700569   -2.49113833787844
H         3.06127773235987   -3.00337627771001   -2.30479263361008
H         3.53063585684508   -1.62715900513513   -3.29309244000545
H         4.75706263224843   -2.80498004103503   -2.80313994258385
H        -3.11694037888662   -3.17842941059842   -3.36578064081491
H        -5.08063673501630    1.68762572401906    1.15665102344796
C         0.23590000000142   -1.68140000000015    2.96030000000023
C        -0.94247437627660   -2.14737905557623    3.53287938855071
C         1.11995346972895   -1.43226576111034    4.02164268418493
N        -0.81938860500762   -2.12846564744770    4.88751293344821
C        -2.18823101927425   -2.64809556724041    2.89309341891792
C         0.44529907702003   -1.69594380709118    5.20798110006415
H         2.13719971253442   -1.10735103397511    3.93553365611703
C        -1.83077072989316   -2.51234264420425    5.83398486245336
H        -2.02996329082049   -2.74560277525681    1.82412939206419
H        -3.02213196872980   -1.96478000465323    3.06147321035694
H        -2.46291930876546   -3.62232091357659    3.29751212866543
C         0.90424214568814   -1.56974116383243    6.51227391517909
H        -1.47444946781600   -2.29948641507526    6.84079662639852
H        -2.04681805572404   -3.58067068722379    5.75552185127837
H        -2.75075885862908   -1.95329737244158    5.65419046645354
N         1.30309118958302   -1.45689152982822    7.58911386091923
