12
 energy: -19.942558679496 gnorm: 0.000167937715 xtb: 6.4.0 (f63f532)
C         0.33197911456810   -1.21016064224845   -0.01196519068525
C         1.71699359674869   -1.19523303247726   -0.00018082509425
C         2.40397252769007    0.00757654186242    0.00646066522625
C         1.70432609490057    1.20309404469115    0.00082216642206
C         0.31920459476173    1.20341942251621   -0.01091683730639
C        -0.35371506439120   -0.00697041655350   -0.01731955151454
Cl       -2.09492453396265   -0.01626051051185   -0.03441323797929
H        -0.20995919037359   -2.14252112943183   -0.01776695046373
H         2.25719189016828   -2.12954383033874    0.00455924522784
H         3.48296821790182    0.01318047711859    0.01704582919618
H         2.23480042142950    2.14298135331478    0.00641247386110
H        -0.23275766944134    2.12993772205848   -0.01586778688999
