98
 energy: -156.615233497345 gnorm: 0.000176215608 xtb: 6.4.1 (1a32961)
N        -0.90506485071727   -2.02438270598021   -0.37952021584930
C        -2.18817061253234   -1.63289328880944   -0.43633371131295
C        -3.08666529246154   -2.24678940639501   -1.31663756609824
C        -2.65590744462556   -3.26965794046635   -2.13554855946987
C        -1.32481733807250   -3.66488595797814   -2.06238675199616
C        -0.49711258123772   -3.00903586161265   -1.17299289421775
H         0.54538946592715   -3.27841174352996   -1.08252887920872
H        -0.94341710684648   -4.46077066669709   -2.68078878253254
H        -4.11388111153284   -1.92731486147733   -1.36743990472983
C        -2.57903607412303   -0.54059775935981    0.45459156456303
N        -1.60727503078891    0.00607156175546    1.20668109015017
C        -1.91514215448950    1.00327373967754    2.02791499691139
C        -3.19239531844151    1.51378165455665    2.16157544733752
C        -4.20832242860932    0.96241459534718    1.39034496435517
C        -3.89410407818758   -0.06836424402687    0.52893802017131
H        -4.67135952954633   -0.50674308206389   -0.07378375166370
H        -3.38763155276795    2.31682166692039    2.85366404456735
H        -1.08923869371925    1.40969728762258    2.59152041292918
Ir        0.42150000000018   -0.81649999999999    0.91330000000022
H         0.87260000000001   -2.23029999999998    1.54050000000021
B         0.39929094776912    0.62341600158492   -0.59300197187652
O        -0.31283696914033    0.40087424888290   -1.75576243479847
C        -0.38001087352248    1.60841587119002   -2.52506549443802
C        -0.22039979758741    1.28458764364053   -4.00813242965463
H         0.66147901403118    0.67554415858750   -4.17579687756364
H        -0.14619742570215    2.20285170008109   -4.58460020561878
H        -1.08925261793389    0.72636908070250   -4.34778285727859
C        -1.77029344876003    2.21291858537408   -2.28265899823441
H        -1.91519371453842    3.11476349036264   -2.86990643682724
H        -2.52212318690447    1.47971500988237   -2.56742873459468
H        -1.90077430248110    2.43609369255209   -1.22572010027338
C         0.77162895367974    2.46915553466812   -1.90834534262142
O         0.92529460847118    1.89160430564072   -0.60309967773926
C         2.10773095718029    2.27101418199329   -2.63388590765895
H         2.35074169274735    1.21145604611367   -2.64949240906839
H         2.07620355982915    2.67279224301923   -3.64230881166833
H         2.88671336713862    2.78118912819524   -2.07247992397492
C         0.46978858900423    3.96102071072143   -1.78574530442055
H        -0.36389121982779    4.13945294633611   -1.11393522565537
H         1.34333842196342    4.46907925373121   -1.38446876566561
H         0.24272434754870    4.37633944610445   -2.76414445148135
B         1.56888621759067    0.62606284445826    1.90037181074768
O         2.93503837840816    0.72812484660366    1.95254477996170
C         3.31815973254107    2.00082049116970    2.49598910376306
C         4.52138507958420    1.82530139049011    3.42126877584379
H         4.32820995950270    1.07607034872384    4.18237613980416
H         5.37558607404476    1.49669268949645    2.83501017031737
H         4.76704630003380    2.77052293488170    3.89728749874026
C         3.71075818161219    2.87748971104593    1.30094311610492
H         3.98642641824622    3.87983723871567    1.61374050201231
H         4.55937161959449    2.41825480148234    0.79939472678857
H         2.88175137117970    2.90690445419878    0.59861805358418
C         2.00525322539198    2.48603935306717    3.20352070319925
O         0.99604207941202    1.65978717531925    2.60468164297385
C         1.65026948836235    3.95240659850947    2.96320363619548
H         1.46874629021165    4.13011975493208    1.90862415782444
H         0.74243970100446    4.19221323155126    3.51124738067798
H         2.45151858113090    4.59641234447762    3.31420111801027
C         1.98751330865508    2.20390055954712    4.71107529373438
H         2.20207592278930    1.15613356475610    4.90206135119077
H         2.70948320786562    2.82405206195740    5.23306308572214
H         0.99368942694018    2.41981289481802    5.09689644876464
B         2.27820000000125   -1.33089999999914    0.17410000000102
O         3.11764108165340   -2.25262330576340    0.76216448912816
C         4.40044503129240   -2.24539316602880    0.12016458692370
C         5.34969289717033   -1.48237876307802    1.04998306500296
H         4.92442903919664   -0.50625175329098    1.26322773609246
H         5.42435954303695   -2.02592941599203    1.98856714222453
H         6.34077081928395   -1.38612322042165    0.61810894897407
C         4.89484523633213   -3.68361510596913   -0.03694224604895
H         5.03519714358579   -4.11380982893017    0.95122510377168
H         5.84386199373950   -3.69801210548555   -0.56504618286088
H         4.17384136783256   -4.29504253908440   -0.56894074620675
C         4.11304976696765   -1.48939502720862   -1.22677142163279
O         2.84967921292413   -0.85091419470440   -0.97710443283927
C         5.14192652455880   -0.42126941254225   -1.59345945749897
H         6.12819024976327   -0.86472847412395   -1.69652985290442
H         4.85991923623290    0.03267582141834   -2.53987777872804
H         5.16378767686223    0.35668339795312   -0.83846768182028
C         3.91782527308701   -2.42801486776946   -2.42466602956883
H         3.15455629484325   -3.16908552387816   -2.20497507478291
H         3.57998767495037   -1.83991343125675   -3.27431636904883
H         4.84748129174398   -2.92415328678563   -2.68575597118077
H        -3.33924585149456   -3.74964971795317   -2.81922034413352
H        -5.22089852493698    1.32946655312941    1.46173012101829
C         0.23590000000188   -1.68140000000046    2.96029999999926
N        -1.03253484945473   -1.97543685265621    3.24489321827064
C         1.19737582636530   -1.61051404632800    3.98298974537060
C        -1.40203460733287   -2.11077845314525    4.49711724103073
C         0.78570481868703   -1.76620086681364    5.29218911725842
H         2.22897569778140   -1.43095519531668    3.72934264047285
C        -0.55745638329547   -2.01488971716125    5.58998467099948
Cl       -3.07931740570713   -2.43825501112894    4.75415038902860
C         1.77126988716710   -1.71344464063108    6.42353799045783
H        -0.90861831434419   -2.13301126389460    6.60077734215910
F         2.91569514255513   -1.08799879558830    6.10833704630710
F         1.28950358632903   -1.08210314980277    7.51109442692362
F         2.12907029220326   -2.94476467044398    6.84949537949666
