99
 energy: -144.795403986910 gnorm: 0.000220531837 xtb: 6.4.1 (1a32961)
N        -0.94012393543193   -2.01888035865735   -0.34549990176135
C        -2.18805456227079   -1.53790211819658   -0.50500575432814
C        -3.08553405437655   -2.14697199571026   -1.39209938042293
C        -2.68976213916016   -3.24557107847406   -2.12250734238713
C        -1.39311126519997   -3.72624379742092   -1.95294970916399
C        -0.56826616474555   -3.08026373777884   -1.05647477275247
H         0.44262466748811   -3.42272462262930   -0.88542901121550
H        -1.03998650524094   -4.58345057053405   -2.50276323466718
H        -4.08651688521407   -1.76537758566329   -1.50811250288514
C        -2.53146817205621   -0.36379344397934    0.28623670918573
N        -1.57975379830643    0.09386385112778    1.12864264928799
C        -1.85162521788872    1.15925648906859    1.87970806632190
C        -3.05428076996120    1.83396860918300    1.83818293393432
C        -4.03839674292969    1.38706740064783    0.95971112499759
C        -3.76963273888227    0.28243881295095    0.18109573941758
H        -4.51709907641709   -0.07476292109543   -0.50762895560937
H        -3.22263873849895    2.68640006159866    2.47617644367361
H        -1.05418540291072    1.47447615889447    2.53487786418395
Ir        0.42150000000003   -0.81650000000001    0.91329999999991
H         0.87259999999999   -2.23029999999997    1.54049999999994
B         0.40852108128541    0.60254271273737   -0.61333940188750
O        -0.16964916791792    0.28640170903007   -1.82929645349717
C        -0.27308590720034    1.45932006448359   -2.64393817073377
C         0.06117277228902    1.10907686104900   -4.09172319907581
H         1.00759137169517    0.58155508615733   -4.14833796514518
H         0.10733610926471    2.01207578777885   -4.69504876264590
H        -0.71458194895061    0.45948124120114   -4.49000897729481
C        -1.73014841707344    1.93679605021503   -2.56167119041670
H        -1.89673018132098    2.79997882908487   -3.19924395321310
H        -2.38009780774989    1.12569131327749   -2.88422910183665
H        -1.98569567681140    2.18455956296932   -1.53324029796730
C         0.72634259581277    2.44270555708476   -1.95155406584116
O         0.79640160051108    1.92378308662219   -0.61590149786809
C         2.14009922912421    2.34675027269596   -2.53825792319980
H         2.48113968101740    1.31638277689167   -2.47178489439628
H         2.16810605260875    2.69611575314561   -3.56638388616556
H         2.81042319002288    2.95757402991124   -1.93842801662767
C         0.28184032254275    3.90366346792689   -1.92296095261116
H        -0.63462221673358    4.02698487610542   -1.35424532131088
H         1.05676700737859    4.50221205100694   -1.45011433274224
H         0.13060667526372    4.26526326713070   -2.93688704983222
B         1.60427485938519    0.62572867984084    1.86992042256354
O         2.95451889571243    0.84194234473209    1.76221161263306
C         3.31420008708642    2.09456731178350    2.35934589337478
C         4.61477389424264    1.93126950433002    3.14596809179902
H         4.53653517874148    1.11761070188708    3.85893431961765
H         5.41994728819608    1.69822102644316    2.45374479366968
H         4.85764814466854    2.85284526043386    3.66800747738718
C         3.53901294557547    3.07718164995108    1.20380319674298
H         3.79228477216287    4.06953181222397    1.56490653249207
H         4.35448673775965    2.70448116590908    0.58819746411774
H         2.64414656795452    3.10891664171577    0.58833104444482
C         2.05583526180930    2.44602395430142    3.22944745760715
O         1.04848113916067    1.57237484652627    2.70414500464359
C         1.57171586149963    3.89102755605315    3.10223537345715
H         1.27009206267461    4.10471947144373    2.08226395638899
H         0.70978578641343    4.03308075737058    3.74966470144318
H         2.35462197288064    4.58002076443748    3.40680300304535
C         2.22503203707219    2.10977861764593    4.71656126360224
H         2.52132114072279    1.07266788186392    4.83990755769639
H         2.96093649875235    2.75855710568964    5.18172335263727
H         1.26811618612564    2.24434720946047    5.21565539712691
B         2.27819999999980   -1.33090000000001    0.17409999999905
O         3.06553546083462   -2.36463369957957    0.63616385651956
C         4.36982693366985   -2.29328700011612    0.04742001480765
C         5.28147245222338   -1.64582091723321    1.09529724136755
H         4.85735180898432   -0.68787312789898    1.38284779132852
H         5.29489608461560   -2.28276900609724    1.97608745407291
H         6.29543659365903   -1.52626521828673    0.72610088565119
C         4.86928093132042   -3.70430414628124   -0.26168855521394
H         4.97497105165376   -4.24976693068691    0.67239537701376
H         5.83605334113694   -3.65861452563503   -0.75521346250402
H         4.16747312806371   -4.24413347773136   -0.88859641884551
C         4.13389172509075   -1.38003704810306   -1.20627890647876
O         2.89639498186401   -0.72347531960092   -0.89422947447011
C         5.21308590656126   -0.32486968929471   -1.44190200830243
H         6.18316362803980   -0.79696681572331   -1.57058935972397
H         4.97228848702148    0.23621318547751   -2.34143166824820
H         5.24587583184382    0.36832661213971   -0.60873844216849
C         3.91222758216034   -2.17316352644846   -2.50154847029867
H         3.11601098313997   -2.89980141977200   -2.36472816665167
H         3.60342113293434   -1.48263583302081   -3.28287831521065
H         4.82290897535283   -2.67561014548627   -2.81325017113931
H        -3.37079575571253   -3.72244522095233   -2.81094175560396
H        -4.98977060850619    1.89232151560936    0.88859477805936
C         0.23590000000100   -1.68139999999885    2.96030000000061
C        -1.04172004855749   -1.98552433812434    3.41068596131514
C         1.21315567623733   -1.63929845875705    3.95332986867244
C        -1.34405445086529   -2.13813364679000    4.76791005652047
H        -1.84701763684953   -2.11018312192767    2.70064530724754
O         2.54450217668717   -1.45959730060669    3.77457339479621
C         0.93486531827886   -1.80547460981600    5.32659736418447
C        -0.37551843467290   -2.04547584500537    5.74155931419996
H        -2.36712739825491   -2.34458681460341    5.05041847733393
C         3.10927656051578   -1.50491113902127    5.00247012445082
C         2.19936516850232   -1.70633068254022    5.98542500823672
H        -0.61046327003056   -2.17136074704029    6.78743328925326
H         4.17558960669235   -1.38710995608703    5.04323692328029
H         2.38801523453885   -1.78090929747268    7.03689746242851
