9
 energy: -21.178921733424 gnorm: 0.000129350665 xtb: 6.4.1 (1a32961)
C        -0.44753460181564   -1.19655223424635    0.00692498387311
C        -1.15963888839515   -0.03799477633887    0.00596399471120
C        -0.33004937438391    1.10648490485640    0.00446586384261
C         0.98794508368006    0.78352998025395    0.00431802134954
I         2.60491371281871    2.10951290094486    0.00272232952795
S         1.26670374014762   -0.92522530450449    0.00606279890478
Cl       -1.07484600048765   -2.79215868304605    0.00906469078309
H        -2.23253080835357    0.00120061773346    0.00636723029690
H        -0.70167286321045    2.11437259434709    0.00354008671082
