94
 energy: -136.981325402252 gnorm: 0.000178890951 xtb: 6.4.1 (1a32961)
N        -0.88754667869413   -2.05457714340258   -0.35130677503131
C        -2.17802815673482   -1.68331774457655   -0.40953744537282
C        -3.10800427533507   -2.42838588474977   -1.14615355283861
C        -2.69532368829009   -3.53980881498003   -1.84841249469540
C        -1.34994291218943   -3.89507317313441   -1.80102777875166
C        -0.49785081662899   -3.12612234818614   -1.03558666531126
H         0.55176739077524   -3.37261454404382   -0.95648520889696
H        -0.98009297589750   -4.75370613849272   -2.33750091030456
H        -4.14785629017594   -2.14702361335143   -1.15955960649138
C        -2.54208358654411   -0.47797129146771    0.32612278162967
N        -1.60038451424023    0.04800211149858    1.13448942933319
C        -1.89828430282674    1.14191216463337    1.83069980888635
C        -3.11991039509376    1.78120385816525    1.76225374521769
C        -4.09043270761731    1.26946791444543    0.90634872798970
C        -3.79286395611698    0.13411230600028    0.18347804835262
H        -4.52424598632292   -0.26813343635242   -0.49768047449753
H        -3.30808057729986    2.66007963159275    2.35757045537913
H        -1.10578787703240    1.51974767082783    2.45860457371747
Ir        0.42149999999989   -0.81649999999996    0.91329999999987
H         0.87260000000015   -2.23029999999996    1.54049999999983
B         0.40738306883386    0.62834485612499   -0.59084399368717
O        -0.25588372593588    0.35280087748755   -1.77117801648602
C        -0.30886549411701    1.52789189801123   -2.58874063268786
C        -0.08551212368393    1.14637191196411   -4.04980349187237
H         0.81473624581407    0.55047344109962   -4.15682270897109
H        -0.00817304960004    2.04067515601894   -4.66263441419030
H        -0.92851206538725    0.55366312936055   -4.39707342579712
C        -1.71483048400700    2.12292321598978   -2.42692256703495
H        -1.84650788059180    2.99629716738319   -3.05863372798132
H        -2.44661431370798    1.36796748243659   -2.70697313798292
H        -1.88976934826118    2.39080711176688   -1.38676240019897
C         0.80432099074573    2.42866571566081   -1.96021002002499
O         0.90526488877719    1.90981873029955   -0.62529621448906
C         2.17331801451201    2.21507288054316   -2.61718112886636
H         2.42852672177472    1.15919387432646   -2.57068256983754
H         2.18134135124309    2.56813430751562   -3.64430823386195
H         2.92102977713408    2.76175610355361   -2.04746369492046
C         0.48283746159720    3.92091220974653   -1.91972423242895
H        -0.38431262033267    4.12096936949491   -1.29828240217080
H         1.33134914450129    4.45642467321755   -1.50084418572342
H         0.29985703767569    4.28828449201210   -2.92627272093366
B         1.55961913606375    0.62874683246062    1.90883101855259
O         2.92966263479260    0.74243412715029    1.95276328312377
C         3.30116386793155    2.01828340767270    2.49639781177090
C         4.53583476004944    1.86729579289386    3.38348442602306
H         4.38895952050356    1.09813759838353    4.13445674511388
H         5.38435959541195    1.58053161317137    2.76771319401628
H         4.76109567127327    2.81208006734951    3.87069289712509
C         3.63453919735472    2.91791827659999    1.30030732859021
H         3.91001541127012    3.91907834504585    1.61782080418883
H         4.46713787977216    2.47688304914771    0.75693574776797
H         2.77785572466002    2.94744756058356    0.63179723792841
C         2.00000079314942    2.46420857623096    3.24624974457714
O         0.98843466752018    1.65470243273448    2.62998361486182
C         1.63483036727728    3.93801339673166    3.07922653235146
H         1.43020833015689    4.16418259050346    2.03821503048469
H         0.73895525334410    4.15037905061737    3.65759168620054
H         2.44267651149903    4.56799305794028    3.44132230555454
C         2.01337991782426    2.11332861883247    4.73972966468916
H         2.23597442903257    1.05826899553212    4.87455339526111
H         2.73889198430343    2.71701035456265    5.27620052353333
H         1.02405557822751    2.30021332609350    5.15137519187703
B         2.27819999999979   -1.33089999999974    0.17410000000124
O         3.09129019148451   -2.29826419588136    0.72831021019858
C         4.38508238638190   -2.27865378642943    0.11078987722303
C         5.32131671687414   -1.55768229666389    1.08674700904062
H         4.90220875594991   -0.58336243193792    1.32134665935400
H         5.36657008468489   -2.13318375177563    2.00807520851624
H         6.32342078000345   -1.45969583042237    0.68132643714311
C         4.87252120062580   -3.71330553688923   -0.09218126103283
H         4.99147774282666   -4.18251486015157    0.88095837725402
H         5.83100006928817   -3.71414226974349   -0.60333780234545
H         4.15746499000411   -4.29821661057501   -0.66094837039590
C         4.12726774028830   -1.46933778647051   -1.20958706862241
O         2.87802975279952   -0.80986597325661   -0.94563575801194
C         5.18701457857135   -0.41718697919434   -1.53132153666476
H         6.16260068418701   -0.88345150589524   -1.63637338142346
H         4.92910625659719    0.07359320344402   -2.46623319747365
H         5.21969650430312    0.33587557791380   -0.75177929201335
C         3.91667017579771   -2.36261028289496   -2.43933691197063
H         3.13132535789079   -3.08877702562452   -2.24807403986332
H         3.59994057355121   -1.73856982712800   -3.27148949568692
H         4.83434637806305   -2.87512608036580   -2.71135273982857
H        -3.40145460252849   -4.12256550961474   -2.41995094042370
H        -5.05167782187927    1.75034362654846    0.80663205800535
C         0.23589999999983   -1.68140000000011    2.96030000000008
N        -1.03020545299461   -1.99952145281324    3.22492374205288
C         1.16197929802756   -1.57602746376484    4.00720735598197
C        -1.38579516843503   -2.11657388638417    4.49059422709192
C         0.67850295845594   -1.73142280372896    5.29013455340606
H         2.20098836540495   -1.38033746974608    3.80170805559823
N        -0.60530524432140   -1.98924310285022    5.54588120983887
H        -2.42848437718682   -2.34657987827450    4.68382100684734
H         1.31820973769834   -1.65571267114022    6.16160483440789
