125
 energy: -176.297470842930 gnorm: 0.008765406748 xtb: 6.4.1 (1a32961)
N        -0.96510000000091   -2.11530000000014   -0.24090000000014
C        -2.24700000000020   -1.69840000000006   -0.36220000000001
C        -3.14039999999887   -2.36819999999982   -1.21199999999984
C        -2.70219999999929   -3.47560000000028   -1.93050000000033
C        -1.37780000000099   -3.89879999999990   -1.78759999999994
C        -0.54289999999927   -3.18670000000011   -0.93509999999990
H         0.49810000000005   -3.45630000000011   -0.78939999999989
H        -0.99570000000025   -4.76030000000015   -2.32769999999981
H        -4.16499999999984   -2.02890000000003   -1.31829999999994
C        -2.62130000000012   -0.50950000000026    0.44100000000087
N        -1.62600000000000    0.07329999999982    1.16019999999999
C        -1.89679999999951    1.15240000000025    1.91689999999941
C        -3.17230000000052    1.70330000000009    1.99649999999946
C        -4.20509999999980    1.11739999999987    1.26270000000010
C        -3.92609999999995    0.00249999999995    0.47820000000004
H        -4.71959999999994   -0.46420000000006   -0.09519999999982
H        -3.34630000000004    2.57509999999977    2.62069999999944
H        -1.04449999999998    1.57420000000015    2.43690000000000
Ir        0.42150000000003   -0.81650000000004    0.91330000000007
H         0.87260000000001   -2.23030000000000    1.54050000000003
B         0.50670000000008    0.41560000000005   -0.81539999999994
O         0.19500000000007   -0.04700000000016   -2.09149999999977
C         0.00650000000151    1.10040000000003   -2.95430000000013
C         0.49020000000041    0.74739999999936   -4.35779999999969
H         1.51610000000062    0.37380000000023   -4.33700000000002
H         0.44729999999991    1.62240000000012   -5.01669999999993
H        -0.14739999999960   -0.03390000000016   -4.78430000000011
C        -1.50120000000091    1.39560000000013   -2.96670000000004
H        -1.75370000000006    2.21459999999980   -3.64850000000038
H        -2.03199999999949    0.49449999999935   -3.28929999999997
H        -1.85170000000028    1.65209999999984   -1.96220000000015
C         0.84229999999951    2.20670000000027   -2.22039999999975
O         0.75200000000003    1.78260000000024   -0.83689999999997
C         2.32930000000157    2.18619999999990   -2.59899999999989
H         2.74130000000032    1.18500000000035   -2.45750000000003
H         2.48870000000004    2.51299999999989   -3.63179999999985
H         2.87200000000023    2.86270000000018   -1.93199999999987
C         0.28439999999963    3.62289999999988   -2.33659999999988
H        -0.72650000000023    3.69040000000005   -1.92910000000008
H         0.92130000000044    4.31480000000034   -1.77610000000003
H         0.26430000000017    3.94809999999991   -3.38319999999984
B         1.56300000000005    0.60959999999996    1.84839999999990
O         2.92779999999954    0.55230000000032    2.15019999999994
C         3.36330000000017    1.88659999999992    2.50259999999889
C         4.53140000000023    1.78589999999924    3.47740000000042
H         4.27910000000018    1.16090000000039    4.33689999999929
H         5.39389999999996    1.33789999999987    2.97339999999947
H         4.82389999999977    2.77870000000021    3.83819999999984
C         3.79699999999997    2.56850000000000    1.19669999999923
H         4.20020000000006    3.57089999999996    1.37680000000001
H         4.56739999999983    1.95560000000000    0.72109999999967
H         2.95239999999985    2.63260000000004    0.50539999999990
C         2.05040000000033    2.50090000000004    3.09320000000025
O         1.03750000000099    1.81620000000012    2.31909999999992
C         1.89099999999985    4.00449999999995    2.88650000000032
H         1.87290000000007    4.25439999999994    1.82410000000008
H         0.94939999999924    4.34259999999994    3.33170000000010
H         2.71079999999945    4.55149999999991    3.36629999999999
C         1.82469999999941    2.13199999999990    4.56520000000012
H         1.92609999999992    1.05330000000022    4.71320000000004
H         2.52609999999997    2.65279999999964    5.22540000000016
H         0.80630000000026    2.41579999999994    4.84900000000016
B         2.27819999999943   -1.33089999999990    0.17409999999993
O         2.89460000000033   -2.57739999999997    0.38449999999988
C         4.26930000000004   -2.48200000000022   -0.07209999999967
C         5.10900000000018   -2.05380000000000    1.14009999999950
H         4.76349999999986   -1.08740000000013    1.51750000000013
H         4.98049999999991   -2.79469999999994    1.93589999999996
H         6.17419999999971   -1.99289999999997    0.89299999999988
C         4.71950000000033   -3.84659999999987   -0.58470000000058
H         4.75280000000007   -4.56129999999964    0.24419999999963
H         5.72330000000033   -3.78370000000002   -1.02010000000011
H         4.03500000000040   -4.23599999999947   -1.34170000000101
C         4.16439999999900   -1.36220000000024   -1.16300000000052
O         3.08519999999985   -0.55030000000016   -0.65399999999989
C         5.40719999999945   -0.48870000000013   -1.31550000000146
H         6.27320000000052   -1.09009999999980   -1.61530000000009
H         5.23300000000011    0.26930000000038   -2.08589999999971
H         5.64269999999998    0.02649999999990   -0.38240000000116
C         3.71799999999951   -1.89829999999952   -2.53109999999642
H         2.82530000000035   -2.52159999999980   -2.42740000000008
H         3.46090000000027   -1.05249999999997   -3.17550000000019
H         4.50570000000004   -2.48289999999972   -3.01790000000030
H        -3.38499999999946   -4.00129999999996   -2.59309999999971
H        -5.21399999999997    1.52080000000008    1.29959999999980
C         0.23589999999995   -1.68140000000001    2.96030000000001
C        -1.10638217612220   -1.68004328007985    3.47341293635699
C         1.00042666046378   -2.66076674797541    3.63596231310836
N        -2.39114600139486   -1.30626548117828    2.95826556502788
C        -1.33657001616408   -2.01671522816345    4.83127595826650
C         0.52891020259731   -3.45939603808334    4.68492109029065
H         1.97524347823807   -2.90729001513881    3.23125788974274
C        -3.20434490653233   -1.01357044641433    4.06030267221085
O        -3.07237798769957   -2.26100512327685    2.11935177138362
C        -0.55383344432844   -2.99469619158890    5.42791489119212
C        -2.61440268292727   -1.48311899230800    5.23971776188906
C         0.87635671570364   -4.92108631343920    4.80284184225424
C        -4.44206071984426   -0.38594835716359    4.05055149090213
Si       -4.66592141838983   -2.74532537528962    1.94268475849599
H        -0.87210816986748   -3.46536648387889    6.34913599876061
C        -3.31462875102220   -1.36148431593402    6.43997330102899
C        -0.17097451386491   -5.67630243652606    3.97804896073179
H         0.81281462211240   -5.25664701062483    5.84132902991555
H         1.87244701843605   -5.13906487848353    4.41164501803190
C        -5.10022987597859   -0.22797873623406    5.26245289447364
H        -4.87733440469613   -0.02448810733433    3.13561803694364
C        -5.54269993023513   -3.35351347151663    3.52110467112556
C        -6.12804471506317   -1.77167026286749    1.19397944477057
C        -4.47635844859348   -4.20612626465070    0.73649612980804
C        -4.55223957439735   -0.72901226203625    6.43264070695817
H        -2.90887430335162   -1.75196369102039    7.36279564906402
H        -1.17700234328796   -5.46586036392015    4.34508370343801
H        -0.01258170457198   -6.75536990153498    4.02128311995051
H        -0.13408023166422   -5.36362794061702    2.93301954004183
H        -6.05500923525730    0.28346730430632    5.28021100437241
H        -5.97830890215091   -2.53211918840337    4.08383426005666
H        -4.89307149828906   -3.91001577645752    4.19233938148350
H        -6.36119268619866   -4.01024554461983    3.22925136349148
H        -7.04850191936522   -2.27577674356969    1.48368337943691
H        -6.14128838571645   -1.76457672282807    0.10367094508288
H        -6.23984188219077   -0.73948557843322    1.52336512673967
H        -5.00586242109802   -5.07244422439868    1.12445783951044
H        -3.44385853535413   -4.49164916122150    0.56009130425542
H        -4.92737503681904   -3.97296130427400   -0.22661876834502
H        -5.10511020562159   -0.62104298063859    7.35694976716152
