105
 energy: -153.012502033770 gnorm: 0.002267807666 xtb: 6.4.1 (1a32961)
N        -0.96509999999999   -2.11529999999999   -0.24089999999999
C        -2.24699999999998   -1.69840000000001   -0.36219999999999
C        -3.14040000000001   -2.36820000000002   -1.21199999999997
C        -2.70220000000002   -3.47560000000001   -1.93050000000000
C        -1.37780000000004   -3.89880000000000   -1.78759999999999
C        -0.54289999999999   -3.18670000000002   -0.93509999999999
H         0.49810000000001   -3.45630000000000   -0.78940000000000
H        -0.99570000000000   -4.76030000000000   -2.32770000000002
H        -4.16500000000001   -2.02890000000000   -1.31830000000000
C        -2.62130000000001   -0.50950000000001    0.44100000000001
N        -1.62600000000000    0.07330000000000    1.16020000000000
C        -1.89679999999999    1.15240000000000    1.91689999999999
C        -3.17230000000002    1.70330000000000    1.99649999999999
C        -4.20509999999998    1.11740000000000    1.26269999999998
C        -3.92610000000000    0.00250000000002    0.47819999999999
H        -4.71960000000000   -0.46420000000000   -0.09519999999999
H        -3.34630000000000    2.57510000000000    2.62070000000000
H        -1.04449999999999    1.57420000000000    2.43690000000000
Ir        0.42150000000000   -0.81650000000000    0.91330000000000
H         0.87260000000000   -2.23030000000000    1.54050000000000
B         0.50670000000000    0.41560000000000   -0.81540000000001
O         0.19500000000000   -0.04700000000001   -2.09149999999999
C         0.00650000000001    1.10040000000002   -2.95429999999999
C         0.49019999999997    0.74740000000001   -4.35780000000000
H         1.51610000000000    0.37380000000000   -4.33700000000000
H         0.44730000000000    1.62239999999999   -5.01670000000000
H        -0.14740000000002   -0.03390000000000   -4.78429999999999
C        -1.50119999999996    1.39559999999997   -2.96670000000000
H        -1.75370000000000    2.21460000000000   -3.64850000000001
H        -2.03199999999999    0.49450000000001   -3.28929999999999
H        -1.85170000000000    1.65210000000000   -1.96219999999999
C         0.84230000000002    2.20670000000000   -2.22040000000000
O         0.75200000000000    1.78260000000000   -0.83689999999999
C         2.32930000000000    2.18619999999999   -2.59900000000000
H         2.74130000000001    1.18500000000000   -2.45750000000000
H         2.48870000000000    2.51299999999999   -3.63180000000000
H         2.87199999999999    2.86270000000000   -1.93200000000000
C         0.28439999999998    3.62289999999999   -2.33660000000001
H        -0.72649999999999    3.69040000000000   -1.92910000000000
H         0.92130000000000    4.31480000000000   -1.77610000000000
H         0.26430000000000    3.94810000000000   -3.38320000000000
B         1.56300000000000    0.60960000000001    1.84840000000000
O         2.92780000000002    0.55229999999999    2.15020000000000
C         3.36329999999999    1.88660000000002    2.50260000000002
C         4.53140000000003    1.78590000000000    3.47739999999997
H         4.27910000000000    1.16090000000001    4.33689999999997
H         5.39390000000001    1.33790000000000    2.97340000000002
H         4.82390000000000    2.77870000000000    3.83820000000000
C         3.79700000000001    2.56850000000001    1.19670000000000
H         4.20020000000000    3.57090000000000    1.37680000000000
H         4.56740000000001    1.95560000000000    0.72110000000000
H         2.95240000000000    2.63260000000000    0.50540000000000
C         2.05040000000000    2.50090000000000    3.09320000000001
O         1.03750000000001    1.81619999999999    2.31910000000001
C         1.89100000000000    4.00450000000000    2.88650000000000
H         1.87290000000000    4.25439999999999    1.82410000000001
H         0.94940000000001    4.34260000000000    3.33170000000001
H         2.71080000000001    4.55150000000000    3.36629999999999
C         1.82469999999995    2.13199999999997    4.56520000000000
H         1.92610000000000    1.05330000000000    4.71320000000000
H         2.52610000000000    2.65280000000001    5.22539999999999
H         0.80630000000000    2.41580000000000    4.84900000000000
B         2.27820000000000   -1.33090000000000    0.17410000000000
O         2.89460000000000   -2.57740000000000    0.38450000000000
C         4.26930000000001   -2.48200000000001   -0.07210000000000
C         5.10900000000000   -2.05380000000000    1.14010000000001
H         4.76350000000000   -1.08740000000000    1.51750000000000
H         4.98050000000000   -2.79470000000000    1.93590000000000
H         6.17420000000000   -1.99290000000000    0.89299999999999
C         4.71950000000000   -3.84659999999999   -0.58470000000000
H         4.75280000000000   -4.56130000000000    0.24420000000001
H         5.72330000000000   -3.78370000000000   -1.02010000000000
H         4.03500000000000   -4.23600000000000   -1.34170000000000
C         4.16440000000000   -1.36220000000002   -1.16300000000001
O         3.08520000000001   -0.55030000000000   -0.65399999999999
C         5.40720000000003   -0.48870000000000   -1.31550000000001
H         6.27319999999999   -1.09009999999999   -1.61529999999999
H         5.23300000000000    0.26930000000000   -2.08589999999999
H         5.64270000000000    0.02649999999999   -0.38240000000002
C         3.71800000000000   -1.89830000000001   -2.53110000000002
H         2.82529999999999   -2.52160000000000   -2.42740000000000
H         3.46090000000000   -1.05249999999999   -3.17550000000000
H         4.50569999999999   -2.48289999999999   -3.01789999999998
H        -3.38499999999998   -4.00129999999999   -2.59310000000001
H        -5.21400000000000    1.52080000000000    1.29960000000000
C         0.23590000000000   -1.68139999999999    2.96030000000000
C        -1.00134636902594   -2.16132567379819    3.44650274096246
C         1.31728214513404   -1.76949333355516    3.83670193694022
C        -1.11856432245122   -2.72692073506420    4.72968944450793
O        -2.09378803467856   -2.02271024483594    2.63571047904532
C         1.20129033228180   -2.23382273872353    5.13799377311231
H         2.29026321537453   -1.47000918453301    3.47020440504366
C        -2.31199850149932   -3.49501749529232    5.16975726697704
C        -0.00947288230251   -2.73142928209954    5.58565896348613
C        -3.37972860027622   -1.86159907459337    3.19900256873708
H         2.06789476986959   -2.27075266471565    5.78538083617612
O        -2.85222355447419   -4.32234134141162    4.45018409778144
C        -2.80491949414402   -3.25345114829976    6.57791310551052
H        -0.09328002682160   -3.18948392420349    6.56135998018322
H        -3.91004053970668   -1.13587654440821    2.57803871291981
H        -3.32347322938466   -1.48057216216684    4.22229308970145
H        -3.93536110872644   -2.80280965147022    3.19443907811494
H        -2.55994427318574   -4.11968780017308    7.19111978219213
H        -3.89519291354400   -3.17356243884960    6.55615248227568
H        -2.37077023644424   -2.35595876767326    7.01281931382092
