119
 energy: -172.731728276081 gnorm: 0.000245899879 xtb: 6.4.1 (1a32961)
N        -0.96510000000001   -2.11529999999986   -0.24089999999999
C        -2.24699999999993   -1.69840000000004   -0.36220000000004
C        -3.14040000000011   -2.36819999999987   -1.21199999999997
C        -2.70220000000003   -3.47560000000003   -1.93050000000000
C        -1.37780000000000   -3.89879999999996   -1.78759999999995
C        -0.54289999999999   -3.18669999999997   -0.93510000000001
H         0.49810000000000   -3.45630000000001   -0.78939999999998
H        -0.99570000000000   -4.76030000000001   -2.32769999999997
H        -4.16500000000002   -2.02890000000001   -1.31830000000001
C        -2.62130000000006   -0.50949999999999    0.44099999999999
N        -1.62600000000000    0.07330000000004    1.16019999999997
C        -1.89680000000000    1.15240000000003    1.91690000000003
C        -3.17230000000002    1.70330000000001    1.99650000000015
C        -4.20510000000004    1.11739999999992    1.26270000000002
C        -3.92609999999995    0.00250000000004    0.47820000000005
H        -4.71960000000001   -0.46420000000004   -0.09519999999996
H        -3.34629999999999    2.57510000000000    2.62070000000005
H        -1.04449999999999    1.57420000000000    2.43690000000002
Ir        0.42150000000001   -0.81650000000000    0.91330000000002
H         0.87260000000000   -2.23030000000000    1.54050000000000
B         0.50669999999999    0.41560000000000   -0.81540000000002
O         0.19500000000001   -0.04699999999995   -2.09149999999997
C         0.00649999999990    1.10040000000019   -2.95429999999992
C         0.49019999999984    0.74740000000002   -4.35779999999997
H         1.51609999999993    0.37380000000000   -4.33700000000000
H         0.44730000000001    1.62239999999998   -5.01670000000001
H        -0.14740000000000   -0.03389999999993   -4.78430000000001
C        -1.50120000000012    1.39560000000002   -2.96670000000000
H        -1.75370000000000    2.21460000000001   -3.64850000000000
H        -2.03199999999999    0.49450000000000   -3.28930000000002
H        -1.85170000000001    1.65210000000000   -1.96220000000000
C         0.84230000000000    2.20670000000006   -2.22040000000000
O         0.75200000000001    1.78259999999999   -0.83689999999998
C         2.32929999999999    2.18620000000009   -2.59899999999995
H         2.74130000000001    1.18500000000006   -2.45750000000001
H         2.48869999999999    2.51300000000002   -3.63179999999998
H         2.87199999999999    2.86270000000002   -1.93199999999995
C         0.28440000000001    3.62290000000000   -2.33659999999996
H        -0.72650000000002    3.69039999999999   -1.92910000000000
H         0.92130000000001    4.31480000000001   -1.77609999999997
H         0.26430000000001    3.94809999999999   -3.38320000000003
B         1.56300000000000    0.60960000000001    1.84840000000001
O         2.92780000000000    0.55229999999999    2.15020000000000
C         3.36330000000000    1.88660000000000    2.50260000000000
C         4.53140000000001    1.78590000000001    3.47740000000001
H         4.27910000000000    1.16090000000000    4.33689999999999
H         5.39390000000000    1.33790000000000    2.97340000000000
H         4.82390000000000    2.77869999999999    3.83819999999999
C         3.79700000000001    2.56850000000000    1.19670000000001
H         4.20020000000000    3.57089999999999    1.37680000000000
H         4.56739999999999    1.95559999999999    0.72110000000001
H         2.95240000000000    2.63259999999999    0.50540000000000
C         2.05040000000000    2.50089999999999    3.09320000000010
O         1.03750000000002    1.81619999999999    2.31909999999998
C         1.89100000000000    4.00450000000001    2.88650000000000
H         1.87290000000000    4.25440000000000    1.82409999999999
H         0.94940000000000    4.34260000000000    3.33169999999997
H         2.71079999999999    4.55150000000000    3.36629999999999
C         1.82470000000001    2.13200000000000    4.56520000000001
H         1.92609999999999    1.05330000000000    4.71320000000001
H         2.52609999999999    2.65280000000000    5.22539999999999
H         0.80630000000000    2.41580000000000    4.84900000000000
B         2.27819999999999   -1.33090000000001    0.17410000000000
O         2.89460000000000   -2.57740000000001    0.38450000000002
C         4.26930000000000   -2.48200000000000   -0.07210000000001
C         5.10899999999993   -2.05379999999997    1.14009999999999
H         4.76350000000001   -1.08740000000001    1.51750000000000
H         4.98049999999999   -2.79470000000001    1.93590000000001
H         6.17420000000002   -1.99290000000001    0.89300000000000
C         4.71950000000001   -3.84660000000000   -0.58470000000015
H         4.75280000000001   -4.56129999999998    0.24419999999998
H         5.72329999999997   -3.78370000000000   -1.02010000000001
H         4.03500000000004   -4.23600000000002   -1.34169999999998
C         4.16440000000009   -1.36219999999998   -1.16299999999999
O         3.08520000000001   -0.55030000000001   -0.65400000000000
C         5.40719999999989   -0.48869999999998   -1.31549999999998
H         6.27319999999998   -1.09010000000001   -1.61529999999999
H         5.23300000000000    0.26930000000000   -2.08589999999999
H         5.64270000000003    0.02649999999999   -0.38240000000002
C         3.71799999999989   -1.89830000000000   -2.53110000000000
H         2.82530000000004   -2.52160000000000   -2.42739999999999
H         3.46090000000003   -1.05249999999999   -3.17550000000000
H         4.50570000000002   -2.48290000000000   -3.01789999999998
H        -3.38499999999999   -4.00130000000000   -2.59309999999999
H        -5.21400000000000    1.52079999999998    1.29959999999997
C         0.23590000000004   -1.68140000000001    2.96030000000001
C        -1.03550672313648   -2.10763768398624    3.39458927350127
C         1.28946528482982   -1.69029216078016    3.87668504314660
C        -1.28872072592324   -2.48937330293701    4.70287029304315
H        -1.85076414807699   -2.15771543985253    2.68593436182375
C         1.03856653583700   -2.09630276626353    5.18092205837569
H         2.28947218920943   -1.42507423516547    3.56898809036324
C        -0.22865650139901   -2.50494017073700    5.61340453886638
H        -2.27552384626994   -2.81071119147887    5.00525020524339
O         1.93719157174658   -2.24121133523188    6.16538639955460
C        -0.04824109032678   -2.92591646385368    6.94270219047505
C         1.28861364592521   -2.76052625344974    7.23532715121497
H        -0.78412519121446   -3.32178305148982    7.61812875222706
B         2.10163143848732   -3.17634814719296    8.48888554928414
O         3.47720070158746   -2.97375950021810    8.65215378303523
O         1.56627134660733   -3.87197839604534    9.58216278457979
C         3.91376746094478   -3.70342378136530    9.78809656315255
C         2.57591722079791   -4.00678444044610   10.57241871895918
C         4.59996594137724   -4.98105128184354    9.26484833309119
C         4.94251059590509   -2.87257538543028   10.56451905843181
C         2.50048890513685   -5.40860314777924   11.19034549092602
C         2.27791665515298   -2.96187666997378   11.66618086699246
H         5.40886268939109   -4.68596400920124    8.58628258935361
H         3.88765544855409   -5.58857401203975    8.69537649568274
H         5.01874076845557   -5.57007936886766   10.08750649210259
H         5.83106490674212   -2.73677036832758    9.93723932879715
H         5.23130060276419   -3.39297741427566   11.48318065940043
H         4.54776700548855   -1.88205148713860   10.81094514398942
H         3.32927102858961   -5.55603932848877   11.89018554928839
H         2.52977677767622   -6.18317878255104   10.41783993829377
H         1.55347313419227   -5.50659868712098   11.73337644102069
H         2.98835071431126   -3.04549238513757   12.49505950157812
H         1.26346066302442   -3.13539877566605   12.04380973275366
H         2.31371211257815   -1.95148046829171   11.24400083643607
