119
 energy: -172.752588984281 gnorm: 0.000301148101 xtb: 6.4.1 (1a32961)
N        -0.90719088598916   -1.99454562081192   -0.40543001272345
C        -2.16471999872243   -1.53290298378958   -0.54755805356950
C        -3.04348693985899   -2.11365731495756   -1.47153244247238
C        -2.61999408018232   -3.16290473101899   -2.25684178800740
C        -1.31396156022665   -3.62348252750518   -2.10474161425301
C        -0.50870498053712   -3.00820983738176   -1.16985758534896
H         0.50888026520003   -3.33600339180481   -1.01116092540340
H        -0.93933221537097   -4.44227286743364   -2.69712635963867
H        -4.05116943670130   -1.74692101340440   -1.57603761648624
C        -2.53903180364103   -0.40935741153105    0.30140594152230
N        -1.59271697564655    0.04700249218514    1.15023439755774
C        -1.89295867168882    1.06557294053000    1.95319250849673
C        -3.12188691578849    1.69294171759747    1.96171001443442
C        -4.10321947604895    1.24553505512194    1.08060324146929
C        -3.80413528393632    0.18954812173965    0.24755810591820
H        -4.55063613105282   -0.16844890425535   -0.44169985430345
H        -3.31166720367714    2.50877361493011    2.64024485280085
H        -1.09687064768812    1.38388007690892    2.60836846341240
Ir        0.42149999999965   -0.81649999999835    0.91329999999974
H         0.87260000000032   -2.23030000000012    1.54049999999994
B         0.40219698125270    0.66616647630720   -0.55864687138777
O        -0.29912900068096    0.46749761513886   -1.73605570910631
C        -0.39485057295093    1.69806767247652   -2.46171838862805
C        -0.23221134954083    1.43148084431403   -3.95589402225755
H         0.66154761911136    0.84696319689954   -4.14717097215746
H        -0.17835833113828    2.37168191621984   -4.49863217989941
H        -1.09032154908358    0.86765593411822   -4.31386590667859
C        -1.79684375120430    2.26697278334548   -2.19816805882554
H        -1.96230017988558    3.18173912482298   -2.75973108839443
H        -2.53528265943027    1.52677299564725   -2.50014016769576
H        -1.92825085638442    2.45909954693568   -1.13512191871324
C         0.73717970094632    2.56126981910893   -1.81557127706576
O         0.89197790025091    1.95187854367226   -0.52684130332691
C         2.08015627565660    2.40472098314492   -2.53916240693552
H         2.33791367092851    1.34941074492729   -2.58650148799017
H         2.04889952529199    2.83708347134097   -3.53512075308742
H         2.84850857901965    2.90737655759086   -1.95644227173052
C         0.40990542882392    4.04476928276851   -1.65893166067946
H        -0.43176082195817    4.19390759774674   -0.98979893831051
H         1.27214284514598    4.55708703530107   -1.23885381217883
H         0.18311635102640    4.47951661255346   -2.62916383959820
B         1.56624722559316    0.61065820027389    1.91998862810377
O         2.93311243852727    0.74849020720884    1.93548935061771
C         3.29739901381096    1.98592709221981    2.56392024676164
C         4.54612042454680    1.78720775087438    3.42124801634022
H         4.41710942100046    0.96326273010273    4.11534795007598
H         5.38976080365240    1.55703547528574    2.77559420586214
H         4.76647051670881    2.69667068951569    3.97382171510439
C         3.60166477363195    2.97467117694712    1.43158472930091
H         3.87149326685808    3.95323088569050    1.81733178947980
H         4.42995615731149    2.58449420930731    0.84438393045909
H         2.73387107495315    3.04333157332181    0.78051003825693
C         2.00326388790565    2.35909789150087    3.36338635981655
O         0.99175739896688    1.58877903368935    2.70179092378420
C         1.62238634389326    3.83794306157704    3.31647226270498
H         1.40075011854174    4.14399182165556    2.29961656284252
H         0.73332191721970    3.99487348444498    3.92227115928014
H         2.42972941835792    4.44590750434227    3.71562344361756
C         2.04210536218339    1.89435180403825    4.82517537291430
H         2.27264839990413    0.83361386321007    4.87636229819460
H         2.77186633337317    2.45985711827658    5.39654856519110
H         1.05802004492491    2.04213983827497    5.26423450516875
B         2.27819999999621   -1.33089999999209    0.17409999999973
O         3.13160698124020   -2.26688719246322    0.71790477817745
C         4.40810795525841   -2.21839970693267    0.06850443048462
C         5.34955397910436   -1.46292847252214    1.01266695653372
H         4.91191764317580   -0.49671019911144    1.24609366031362
H         5.43102094359658   -2.02502142380407    1.93975084707426
H         6.33881261062279   -1.34501534634925    0.58146374710375
C         4.92954462659219   -3.64135681642204   -0.13357297144451
H         5.08724189068352   -4.09640527003862    0.84066682759010
H         5.87355996249635   -3.62105847337322   -0.67080337371155
H         4.21558505070575   -4.25118066167232   -0.67689289713146
C         4.09793550825113   -1.42985548819358   -1.25375372336437
O         2.83596774227163   -0.80753564155986   -0.96930432592311
C         5.11636513354732   -0.34700200689088   -1.60733776375659
H         6.10467963640701   -0.78116884160271   -1.72994810616359
H         4.82179830126905    0.12614299460237   -2.54066416201722
H         5.14006669636108    0.41419835922099   -0.83532055749748
C         3.89136293682853   -2.34006092093528   -2.47205358843407
H         3.13450350160690   -3.08956613856049   -2.25835743144168
H         3.53696903099518   -1.73347222528244   -3.30194650426623
H         4.81945672774196   -2.82479871170574   -2.75922108525534
H        -3.28666956392687   -3.61669281872281   -2.97424329671357
H        -5.07594581085842    1.71263134058727    1.04945999292521
C         0.23589999998489   -1.68140000000316    2.96029999999798
C        -1.05230397793712   -2.02139916891270    3.41026913742999
C         1.29071140415895   -1.68341022223398    3.86726659040423
C        -1.32666658981536   -2.28861952685317    4.73455228353685
H        -1.86396548858294   -2.08829461695110    2.69965148183038
C         1.02229182297436   -1.97345944201829    5.19409786920312
H         2.29972508212541   -1.49741983480772    3.53659751099503
C        -0.27627837075636   -2.27576369590173    5.65422621293760
H        -2.32818885927929   -2.53794763316531    5.05417278458745
O         1.91535680139200   -2.07701171094198    6.20708729457313
C        -0.11635610896438   -2.57974705877215    7.03570522331214
C         1.21503223983827   -2.46075534391245    7.32607995305643
H        -0.87756608511533   -2.86649037080848    7.73236540265843
B         2.00285535667834   -2.79874369982855    8.61806581864108
O         3.35860200239627   -2.71292719764962    8.72695606590930
O         1.41336745088994   -3.28239610435626    9.75079456319161
C         3.76213970151240   -3.33841014786821    9.95305432634950
C         2.41925496270302   -3.41846247471819   10.76797131584834
C         4.32113197721212   -4.71754427006428    9.57972652398210
C         4.86753804582435   -2.51106272808312   10.60539875509765
C         2.20060799309263   -4.72945466203801   11.52028457623222
C         2.23453198876251   -2.24414080282850   11.73676913300740
H         5.14175318592025   -4.57781311751571    8.87994231785650
H         3.55744834380718   -5.31240809725985    9.08454033925294
H         4.68638301034646   -5.24094536243816   10.45731139378421
H         5.74352038524543   -2.52946506136764    9.96215825395029
H         5.12848094095680   -2.93485818379068   11.57066633662776
H         4.56403576467633   -1.47700291353265   10.73048703783547
H         3.00408047920566   -4.88675555867801   12.23368289918236
H         2.15030945224641   -5.57066735909397   10.83679230533959
H         1.25681587961162   -4.67367684610253   12.05636184414146
H         2.93805820861417   -2.30693572735733   12.56058280422881
H         1.22123100338080   -2.27767485442244   12.12983863479260
H         2.36062480964790   -1.29976396228787   11.21326583346339
