15
 energy: -26.185216952273 gnorm: 0.000153771440 xtb: 6.4.1 (1a32961)
C         1.00105538446344   -1.42408302221522   -0.00239392533114
C        -0.16419475600697   -0.69708910668020    0.02670017302275
O        -1.46321371690716   -1.14709524471311    0.05285309354443
C        -2.27548571179227    0.01001888886781    0.07778731402222
O        -1.45235024215869    1.15965607827653    0.06763312354256
C        -0.15765693745286    0.69783413893458    0.03527572511603
C         1.01429809931028    1.41426083000732    0.01517987692377
C         2.19976128397152    0.68107280003498   -0.01422799223189
C         2.19329390529272   -0.70164531242534   -0.02269494946776
H         0.98570153895075   -2.50063165832589   -0.00950708818963
H        -2.89141435429694    0.00702216558314    0.99071662332977
H        -2.92954190412514    0.01883551895847   -0.80814412113804
H         1.00882549776679    2.49091303476040    0.02268667832402
H         3.13894116373223    1.21103695778522   -0.03024385281494
H         3.12749074925231   -1.24006606884871   -0.04582067865215
