99
 energy: -148.657071933073 gnorm: 0.000304348487 xtb: 6.4.1 (1a32961)
N        -0.93248003995435   -2.02896111755378   -0.37227198887214
C        -2.19040465218680   -1.56666388165284   -0.47385066573195
C        -3.05261686812046   -2.03173937457979   -1.47257938403795
C        -2.61802771679397   -2.99610907394515   -2.35699311224506
C        -1.32071196338646   -3.48154410078960   -2.22678356778192
C        -0.52349154075187   -2.96115241651160   -1.22756039738572
H         0.49400857173254   -3.29973019841081   -1.09398738088356
H        -0.94060748031516   -4.24051264151793   -2.89088958994083
H        -4.04806995900406   -1.63049384276099   -1.56855591042274
C        -2.58741004016494   -0.54769011052712    0.49469884737809
N        -1.60634139086508   -0.01262370446984    1.24560252852488
C        -1.91730677668460    0.93011001417141    2.12947291077086
C        -3.20500962814776    1.38828181283538    2.33117314962574
C        -4.23285405180042    0.83280022390610    1.57664744578380
C        -3.91690173973400   -0.14020124623830    0.65146237104411
H        -4.69994963277468   -0.59344918485378    0.06674846380399
H        -3.40084385094221    2.15245557845920    3.06587841342878
H        -1.08470377071822    1.33107978765432    2.68760179411604
Ir        0.42149999999999   -0.81649999999971    0.91330000000018
H         0.87259999999992   -2.23029999999999    1.54049999999994
B         0.35588788013590    0.59753739465429   -0.61217721921426
O        -0.36920943191008    0.35166728487773   -1.76631558588663
C        -0.53304851940708    1.56679430092055   -2.50580065884028
C        -0.41513705933946    1.28325250246751   -4.00081372505173
H         0.49160308236547    0.72831174797616   -4.21702559194141
H        -0.41488109191110    2.21607628508078   -4.55857705013366
H        -1.26489158110071    0.68354017047821   -4.31796047476093
C        -1.94413721139024    2.08894398816955   -2.19724426738986
H        -2.16116436899621    2.99247987072971   -2.75904511120064
H        -2.66606783586237    1.32073847418225   -2.46749681362528
H        -2.04362496037748    2.28535183901393   -1.13141616884421
C         0.58996159699316    2.47800953271451   -1.91204769789398
O         0.80665895643180    1.89616225054794   -0.61908968381486
C         1.91274001956883    2.35280834878482   -2.67721419711033
H         2.20098102781773    1.30532804665888   -2.72155282828817
H         1.83482185825869    2.77184655192757   -3.67617630008190
H         2.68404767192312    2.88520026236537   -2.12585997481649
C         0.21721589748627    3.95188566910681   -1.76718078208636
H        -0.60010244242506    4.08281294862113   -1.06484447009371
H         1.07736153790632    4.50177840823838   -1.39313856161864
H        -0.06585804829932    4.36088649743218   -2.73369916721123
B         1.58146575415134    0.64075204382866    1.86107853371961
O         2.94137003147238    0.80898356674923    1.83677837107043
C         3.29021486785106    2.08087774360578    2.40505198542858
C         4.56695529048141    1.94938928971808    3.23285125021599
H         4.47855054506343    1.15435338808860    3.96566029888556
H         5.39677695325242    1.71046665649952    2.57282476637014
H         4.78082394509955    2.88733191859895    3.73817990708751
C         3.53715779343601    3.02820197590459    1.22466995348068
H         3.79033430279590    4.02884643503101    1.56169969564933
H         4.35985987414871    2.63480699931594    0.63215798159905
H         2.65105677779433    3.04570240073276    0.59540736708117
C         2.00816398020624    2.45400573915921    3.22434205032074
O         0.99970959132071    1.63004604416206    2.62235930978389
C         1.58585130201601    3.91883981118697    3.12520134987232
H         1.32845397452168    4.17368253737617    2.10265508981868
H         0.70960098740019    4.07944516907597    3.74853873894035
H         2.38678273379338    4.56432297266588    3.47509262549021
C         2.09876433772767    2.05261445699063    4.70215999046055
H         2.34429801312799    0.99777024491360    4.79123134692730
H         2.83958558422372    2.64911215904078    5.22553909196899
H         1.12860710548013    2.20813669879870    5.16867181526632
B         2.27820000000004   -1.33090000000060    0.17410000000024
O         3.13509826130271   -2.26379272309275    0.71595128002223
C         4.40692101246467   -2.21747629494952    0.05376737189502
C         5.35482699838904   -1.45126829013799    0.98206897160254
H         4.91647679041156   -0.48434650259544    1.21076966203684
H         5.44644276233499   -2.00452129070114    1.91328288305609
H         6.33943491316214   -1.33518244676944    0.54001126087481
C         4.93054246105331   -3.64016201827513   -0.14329392293010
H         5.10704434264839   -4.08567938661928    0.83202750358423
H         5.86516381616036   -3.62069408233948   -0.69665014516441
H         4.21022636465797   -4.25779241655915   -0.66899802531471
C         4.08249326413492   -1.44052770462983   -1.27168515271799
O         2.82412050373474   -0.81498850178949   -0.97736481901729
C         5.09571001045781   -0.36092213594903   -1.64823187955175
H         6.08182678577162   -0.79612111464832   -1.78366575698007
H         4.78535637897430    0.10595202852677   -2.57952931930919
H         5.13165637501256    0.40494409940963   -0.88157414233559
C         3.85894324259190   -2.36123145313476   -2.47906572297012
H         3.11007171299483   -3.11280832678181   -2.24607998776923
H         3.48673006476075   -1.76224252968581   -3.30649204368234
H         4.78410535019610   -2.84360567450584   -2.77903797211162
H        -3.27054875777846   -3.36205990497909   -3.13492740371232
H        -5.25503820080662    1.15254307730909    1.71109608036335
C         0.23589999999888   -1.68139999999895    2.96030000000179
O        -1.03547077150063   -2.03717106437574    3.30046309554087
C         1.00717541902244   -1.67549676566781    4.08956298923713
C        -1.08800548247367   -2.21917369998220    4.62467524327982
C         0.15018183046295   -2.00636831356632    5.18081913364380
H         2.05486142100722   -1.47009948459043    4.14554985272733
H        -2.02928784250872   -2.48254776749552    5.06398624048912
C         0.53786698939454   -2.11980672053800    6.58056044715542
O         1.64157118979476   -1.87780285494081    7.02253976360809
O        -0.47696845269399   -2.53887145744054    7.35580185900381
C        -0.19002220649120   -2.70152537784278    8.74348757179718
H        -1.10450283630792   -3.07988646112357    9.19143115411577
H         0.09333241415656   -1.74409560728246    9.18501876858252
H         0.63137721592567   -3.40817989089709    8.87800852526213
