103
 energy: -154.419850958383 gnorm: 0.000718082105 xtb: 6.4.1 (1a32961)
N        -0.81279665176694   -1.95325852982229   -0.51979783622216
C        -2.07460519647331   -1.51926927016228   -0.67079790077110
C        -2.94136787476837   -2.13140092950719   -1.58435294736109
C        -2.49888652322735   -3.19061960629934   -2.34612123121521
C        -1.18662644013825   -3.62224531175350   -2.18500673506508
C        -0.39390144099188   -2.97006794592382   -1.26277061282942
H         0.63087605464425   -3.27264672598801   -1.10203777711466
H        -0.79696577417800   -4.44974588587648   -2.75517257145262
H        -3.95883349920146   -1.79237747967686   -1.69102862402250
C        -2.48789993120653   -0.40156464153169    0.17176010090659
N        -1.61429806394875    0.00395508590260    1.11597770568623
C        -1.97258420818733    0.98563287135755    1.94122005693799
C        -3.19003136643127    1.63128062273006    1.87495620013729
C        -4.08665283551596    1.25325806115767    0.88025609455490
C        -3.72857104088965    0.23059199404453    0.02740394358432
H        -4.40719187854311   -0.07001989140535   -0.75389214618517
H        -3.43161623518007    2.41178315274361    2.57779907435759
H        -1.23153735692017    1.26316087765950    2.67564237296006
Ir        0.42150000000002   -0.81650000000007    0.91329999999988
H         0.87260000000018   -2.23030000000005    1.54050000000015
B         0.47270800895027    0.68863259117087   -0.53803292827521
O        -0.25960670479782    0.54421708011093   -1.70005595103166
C        -0.25873767608834    1.77342526665386   -2.43760208026411
C        -0.12177349495344    1.47792534892184   -3.92897668339490
H         0.72713072610332    0.82900214245134   -4.11629801628278
H        -0.00374122328883    2.40510224019684   -4.48365526347929
H        -1.01933914274552    0.97227299728143   -4.27664269805822
C        -1.61163728621051    2.45048681036135   -2.17691300601463
H        -1.70337626827809    3.37462845171598   -2.73955941763822
H        -2.40470558150880    1.76979486378394   -2.48001360535076
H        -1.72972888862086    2.65232921400576   -1.11413491498505
C         0.94175426325909    2.55073808560418   -1.80361002920074
O         1.07245852615986    1.92385077240423   -0.51835553362574
C         2.26042560371487    2.30595404336603   -2.54644517896460
H         2.44839370751398    1.23627121797811   -2.59575432105487
H         2.24136201559630    2.73765196707401   -3.54269945294953
H         3.06928764355141    2.76014954094032   -1.97893386800997
C         0.72119078979674    4.05207553227636   -1.63008677189694
H        -0.09979551037287    4.25302066048199   -0.94876249382857
H         1.62223092809376    4.49892915590529   -1.21669075140112
H         0.51393282380783    4.51115889520207   -2.59311499074646
B         1.51168246643719    0.64839295767261    1.93232246109729
O         2.87326995955691    0.77834755601052    1.99332582205918
C         3.23785741813901    2.03271591551079    2.58718741912771
C         4.38522339292928    1.81155082041430    3.57299578630405
H         4.12824467772663    1.06686250188860    4.31931886639092
H         5.25350750738347    1.45248876698210    3.02679595670531
H         4.64174623468072    2.74481182311335    4.06634878908144
C         3.72010849403420    2.93043107859364    1.44126494276869
H         3.97066343635501    3.92673679516284    1.79179036551774
H         4.60585980963568    2.48032638151725    0.99895586890142
H         2.94777042229660    2.97485003369541    0.67854415013665
C         1.89304495210846    2.52216836835503    3.23574799152561
O         0.90978136719773    1.66627999628007    2.63442270540575
C         1.52758059471626    3.97449932516780    2.92912347811195
H         1.39378289567616    4.11259491960443    1.86141312563543
H         0.59054370790702    4.21615916466666    3.42484888503068
H         2.29970120412181    4.64493466358365    3.29552305697322
C         1.82485100150715    2.29879228458413    4.75131489692201
H         2.02640882818049    1.25911035433629    4.99419326070107
H         2.53312963163655    2.93618540566213    5.27105158014896
H         0.82020106700028    2.53481505032744    5.09481199393275
B         2.27819999999938   -1.33089999999862    0.17410000000190
O         3.19304848703938   -2.12634825352555    0.82579264169147
C         4.43278431834316   -2.15458304734018    0.10450712911025
C         5.38502506244055   -1.20081972561621    0.83307043924284
H         4.91718468671385   -0.22339998533564    0.90697824173341
H         5.53823665369250   -1.57260905293264    1.84314649558290
H         6.34467165979038   -1.13335073942376    0.33022983847466
C         5.00877401954304   -3.56979285946726    0.13777966104035
H         5.25375508770562   -3.82335662584970    1.16570779993062
H         5.91283677611122   -3.61902243366431   -0.46253475624017
H         4.29142032744902   -4.29842147885082   -0.22481293491511
C         4.01599327690967   -1.64021438499820   -1.31839545576713
O         2.75618149975822   -0.99194822970344   -1.06944483698966
C         4.98133941257631   -0.63613608742552   -1.94499579696187
H         5.96992766750301   -1.07585735290749   -2.04236893125374
H         4.62028631584804   -0.36394498937998   -2.93355342800049
H         5.03666558390963    0.26450966112352   -1.34349092940469
C         3.75277793727696   -2.77334804876457   -2.31876226941564
H         3.04986508764544   -3.48951289677112   -1.90219771906805
H         3.30909217349065   -2.34881694152911   -3.21596120415698
H         4.67587236001913   -3.27908678779680   -2.58479955791968
H        -3.15972083697100   -3.67512679862406   -3.04879399983755
H        -5.04151033962791    1.74561671841131    0.77681111890045
C         0.23589999999931   -1.68140000000039    2.96029999999974
C        -1.03878947745099   -1.94604444162478    3.48629967031080
C         1.28727679641137   -1.51946752664490    3.86533031546834
C        -2.17034955567205   -2.36178756184767    2.63688700888095
C        -1.26174789299891   -1.89642897590840    4.87029164089408
C         1.06369038003738   -1.49462238414329    5.23799051704007
H         2.29127787942758   -1.40663422929347    3.48551469965447
O        -2.09181933951289   -3.05792034526831    1.64577512992652
O        -3.35476521817477   -1.95467024649797    3.12990719412683
C        -0.23276487007239   -1.65758494404584    5.74841036024547
H        -2.25978138260163   -2.06774410179740    5.24375481691538
C         2.14598606101855   -1.30173808467653    6.12255820414429
C        -4.52012150663334   -2.40378944598871    2.44745776334688
H        -0.40497309659013   -1.61936902424264    6.81290302609631
N         3.02203224744094   -1.13386227750188    6.84636509344180
H        -4.50450600794534   -3.49109574429181    2.34885400374743
H        -4.56751204542648   -1.95836758950757    1.45171049263246
H        -5.36207532280576   -2.07946207521229    3.05294525379734
