102
 energy: -151.863582863649 gnorm: 0.000298803378 xtb: 6.4.1 (1a32961)
N        -1.05390977831192   -1.97561021886304   -0.35437886863176
C        -2.21974145411580   -1.34163293556074   -0.59536522427018
C        -3.03831331988897   -1.71822874650326   -1.66568018372541
C        -2.65379763234679   -2.75572522341990   -2.48780139592242
C        -1.45287309102917   -3.40855195702685   -2.22229287512156
C        -0.69587501048661   -2.97839548848461   -1.15216162238957
H         0.24157218608370   -3.45618270068971   -0.90459065320403
H        -1.11710955267479   -4.22802081785924   -2.83644868280739
H        -3.95880090536080   -1.19381253517304   -1.86314573310302
C        -2.55105416107986   -0.24406064035625    0.30878299392774
N        -1.58661807691787    0.12589075172808    1.17857246198498
C        -1.83959776810229    1.11620822342588    2.02942083150139
C        -3.04169090397259    1.79470468199992    2.07018420594414
C        -4.04451946939309    1.42664774027754    1.17820023177109
C        -3.79333839570932    0.39911662809234    0.29311680965552
H        -4.56168883350790    0.09001025191935   -0.39608004085644
H        -3.19558003678412    2.58423560744355    2.78724783596029
H        -1.03070528305065    1.36776399061052    2.69796448645661
Ir        0.42149999999996   -0.81649999999996    0.91330000000011
H         0.87260000000007   -2.23030000000002    1.54049999999990
B         0.41108919734011    0.54328013375087   -0.66181029969697
O        -0.11516107832647    0.16023214844612   -1.88133726634316
C        -0.21057978935453    1.29145022942960   -2.75398905690702
C         0.19337060124283    0.87908848945688   -4.16697214305622
H         1.15567530142333    0.37838313824945   -4.15779847190702
H         0.23839049661316    1.75063366954215   -4.81481394760587
H        -0.54634487892497    0.18575114709652   -4.56010154368372
C        -1.68043476380688    1.73585035595826   -2.75709800988235
H        -1.83666424066190    2.56850641583822   -3.43638574774811
H        -2.29563793317317    0.89678698895796   -3.07572569602129
H        -1.98792065942472    2.01880437152220   -1.75220389746740
C         0.73570336510460    2.32935413944915   -2.06685082464725
O         0.75964203456648    1.87376155218025   -0.70581872080776
C         2.17453519870193    2.23855399781855   -2.58868159902662
H         2.53416396474630    1.22081707246683   -2.45705863650640
H         2.23839067981615    2.53869705490736   -3.63062917115529
H         2.80497150038990    2.89313648334229   -1.99210995935733
C         0.25885781827188    3.77888829131895   -2.12624752056230
H        -0.68602032399999    3.90698842242116   -1.60729730402046
H         0.99753643133351    4.41635423560388   -1.64641680616220
H         0.14849033621639    4.09003309962082   -3.16187751642950
B         1.64510422941800    0.64536769141860    1.77107589690620
O         2.96623028479537    0.92140854172951    1.55559796593332
C         3.32809731347837    2.16127047619039    2.18041410083170
C         4.69090444353197    2.01297400256450    2.85671009209334
H         4.70367436880606    1.15123514024637    3.51598974308310
H         5.45166274245200    1.86616722056984    2.09408771019351
H         4.93066544532695    2.91029802585950    3.42034230071648
C         3.42701691234126    3.20123866805988    1.05822745738460
H         3.67458917467692    4.18451155625021    1.44661978333241
H         4.20430399811588    2.88673620076120    0.36545000745422
H         2.48604929328273    3.22905940405111    0.51551670145063
C         2.13046687373165    2.42465508811741    3.16087236946307
O         1.11228898776637    1.54028722189588    2.67006617801925
C         1.59177523923042    3.85514683771959    3.14748660914813
H         1.20798192682908    4.11289320125752    2.16604259552927
H         0.77789983205348    3.93229869099742    3.86423023220478
H         2.37419089821121    4.55352837587779    3.43088955575883
C         2.42961462489555    2.01816172832872    4.60879360105818
H         2.78230523170859    0.99256691585852    4.64371320209034
H         3.17030478499800    2.67621834480058    5.05249330025439
H         1.50982774807776    2.07850505226052    5.18626742401903
B         2.27819999999995   -1.33089999999923    0.17410000000054
O         3.07522305228374   -2.32185345404952    0.70285763055414
C         4.37131818508224   -2.29356268121155    0.09264083889911
C         5.29884804422331   -1.57335351123452    1.07637379784649
H         4.89244214885274   -0.58838289242917    1.28547117524843
H         5.30776608344756   -2.13137160378976    2.00928605947236
H         6.31175251993443   -1.50055542446153    0.69271893737258
C         4.86578476703700   -3.72424398708628   -0.11932062644227
H         4.99463871341850   -4.19518020145565    0.85162444530357
H         5.82062390920807   -3.71665935900170   -0.63727206354044
H         4.15019477195692   -4.31091397574124   -0.68566309862265
C         4.11491666397284   -1.47447579710240   -1.22103674837744
O         2.87832170706104   -0.79865531869797   -0.94229624719771
C         5.18941189870777   -0.43914955775087   -1.54724710960814
H         6.15979554800334   -0.91865941987559   -1.63993881723704
H         4.94512696356007    0.04568568678511   -2.48914776189845
H         5.22474139479357    0.31951452291163   -0.77329356880523
C         3.87763056532258   -2.36173373398385   -2.45058291361884
H         3.08764871100701   -3.07925762640811   -2.24713212215646
H         3.55456178998523   -1.73214567026351   -3.27621573247745
H         4.78596454598735   -2.88282868694483   -2.73719363562836
H        -3.27111153341004   -3.05218622890562   -3.32198082159652
H        -5.00012050419994    1.92859429994791    1.18079442504813
C         0.23589999999908   -1.68140000000114    2.96030000000062
C        -1.04009071869969   -2.02978419485002    3.39643052996446
C         1.13149813326640   -1.51390287768296    4.00232654310312
C        -1.42524653890723   -2.08122355746102    4.75965897470121
N        -2.17613694855560   -2.36488604052455    2.70295263688731
C         0.80125254111477   -1.56807278185549    5.35654406527411
F         2.44893482439002   -1.27708029707288    3.72239525651224
N        -2.75552372762493   -2.41402538858605    4.84575549666183
C        -0.49005636643986   -1.83589036341321    5.75916329738561
C        -3.16474735186882   -2.57704619583670    3.61890629764561
H        -2.23650422075315   -2.45524134680961    1.70291843697540
H         1.58209156253700   -1.39545197271709    6.08130806590042
H        -0.76539036163931   -1.87028452683023    6.80003031037070
C        -4.54555564535689   -2.94248015315960    3.21881917890149
H        -5.15090379769831   -3.06450217942639    4.11103846804919
H        -4.54430005684931   -3.87255323434551    2.65287544862207
H        -4.97491075872489   -2.15873823063722    2.59591321949296
