12
 energy: -23.700284366306 gnorm: 0.000093255390 xtb: 6.4.1 (1a32961)
C         1.68146599671641   -1.90111421254949    0.00066910585789
C         2.64181342600567   -0.90277746250627   -0.00040786634370
C         2.22152695004720    0.41491471881688   -0.00298472015616
F         3.14765499322059    1.40167730149081   -0.00405926859390
C         0.88445404797057    0.76934812381271   -0.00429740086578
C        -0.04804941840121   -0.25386421381496   -0.00295649978258
Br       -1.90721194418200    0.19184197162979   -0.00597149819149
C         0.33263240372320   -1.58555182782836   -0.00058899665237
H         1.98521415479559   -2.93546412419635    0.00278289139254
H         3.69521225558430   -1.13025518823286    0.00081718843369
H         0.59397280796450    1.80753555050989   -0.00639966774304
H        -0.41478567344482   -2.36248063713180    0.00024673264491
