100
 energy: -144.169383208729 gnorm: 0.000188404646 xtb: 6.4.1 (1a32961)
N        -0.91635901677981   -2.02340522850353   -0.36311988877890
C        -2.17207402517705   -1.55952054665650   -0.52190125444765
C        -3.06831323899971   -2.19463593323823   -1.39338055661795
C        -2.66285061897527   -3.29503525518986   -2.11400225846574
C        -1.35624511116891   -3.75354380856643   -1.95081312181004
C        -0.53572072393476   -3.08674068094510   -1.06687339183018
H         0.48146483360880   -3.41288880655225   -0.90047938175031
H        -0.99483376304427   -4.61071379762785   -2.49545572838023
H        -4.07700591954568   -1.83081039427610   -1.50181700032559
C        -2.52345632629749   -0.37829429179574    0.25031548018053
N        -1.58332456972714    0.08405431736738    1.10512411626789
C        -1.86609749998177    1.15836181067739    1.84077101267567
C        -3.06337119523201    1.83807587009739    1.76946088050706
C        -4.03325292042651    1.38862997867495    0.87463531196257
C        -3.75514531945003    0.27567296481735    0.11293185655518
H        -4.48884259246584   -0.08271097246511   -0.59030563087863
H        -3.24049271327153    2.69709841063104    2.39645516393130
H        -1.08001732898876    1.47603794661990    2.50836689241806
Ir        0.42150000000014   -0.81649999999999    0.91330000000001
H         0.87259999999998   -2.23030000000001    1.54049999999989
B         0.39515902283679    0.63155289180071   -0.59244247291162
O        -0.20390228015743    0.33078181213787   -1.80230215494640
C        -0.29860865577698    1.50676501791770   -2.61215022944645
C         0.02137852051904    1.15720346047911   -4.06363955538341
H         0.96197325251162    0.62047959110628   -4.12908847774804
H         0.07209712388625    2.06146690613906   -4.66483152638524
H        -0.76381214492497    0.51651227370778   -4.45806168738717
C        -1.74892646118042    2.00289724947450   -2.52058399590176
H        -1.90758502580627    2.86995779017338   -3.15504917996599
H        -2.41155956928620    1.20153939686204   -2.84206553691187
H        -1.99659096799581    2.25122858355600   -1.49038664236732
C         0.71819760084849    2.47632648524586   -1.92511637677075
O         0.80083043731727    1.94849733798485   -0.59457572943000
C         2.12420653467023    2.37248185704598   -2.52899873246548
H         2.45541009253143    1.33799877042929   -2.47909335813919
H         2.14477603014970    2.73337757099287   -3.55334101485061
H         2.80699736296889    2.96978200886361   -1.92939052033030
C         0.28751952266726    3.94124909641888   -1.88190957701946
H        -0.62032226197512    4.06931873280869   -1.30043635209196
H         1.07400228218161    4.52983770193251   -1.41552489859465
H         0.12626330094653    4.31066046129078   -2.89154599991608
B         1.57465585873289    0.64446366722532    1.86752326882883
O         2.93096162860855    0.85004833687726    1.77434148373095
C         3.29476101622740    2.09443641158078    2.38566426484506
C         4.58465037801411    1.91335814812507    3.18566175062307
H         4.49490335750656    1.08278265548112    3.87757749078000
H         5.40049987547506    1.69772359820403    2.50046955812269
H         4.81843998843326    2.82347015748438    3.73120432540484
C         3.53652185947083    3.08800973806515    1.24286061559035
H         3.79871767246102    4.07324372536710    1.61700345850891
H         4.35138665293032    2.71459293861211    0.62656051844539
H         2.64485074465401    3.13777406807985    0.62372569740252
C         2.03139985951796    2.44474955819118    3.24655703152292
O         1.01727848900795    1.60368476163983    2.68375951937303
C         1.57778576434841    3.90195519185520    3.15762139885881
H         1.29205366167597    4.15327018284639    2.14159382446490
H         0.71144406986630    4.04240373006130    3.79945728187714
H         2.37144348503949    4.56503797272771    3.49124832836999
C         2.17525672755129    2.05286598189707    4.72238853124899
H         2.44463874426805    1.00356224556635    4.79961462853036
H         2.91891834221902    2.66770526307395    5.22002517827596
H         1.21465425421304    2.19089511290681    5.21317706299394
B         2.27819999999967   -1.33089999999980    0.17410000000089
O         3.14803693563534   -2.25916856781194    0.70620669698212
C         4.40503027959415   -2.22189063838706    0.01967692733830
C         5.37275011373328   -1.44132044957095    0.91630102632359
H         4.94298326601872   -0.46752656515222    1.13422722543949
H         5.48378540876861   -1.97987465408136    1.85434988943288
H         6.34862908610844   -1.33514530750507    0.45278399004263
C         4.92538724691648   -3.64730212077345   -0.16576461222353
H         5.11783017116370   -4.07876128728574    0.81292034127714
H         5.85026660314015   -3.63658052674218   -0.73571364357277
H         4.19581519195485   -4.27204343379462   -0.66994762817871
C         4.05290797148751   -1.46379666827738   -1.30849051858821
O         2.80916424001693   -0.82191950999710   -0.99099068694267
C         5.07129893958550   -0.40511727454180   -1.72943153581907
H         6.05079132080956   -0.85527111530295   -1.86546050262793
H         4.75624530653341    0.03895185088504   -2.67046316814533
H         5.12652779039749    0.38195861897879   -0.98536465877197
C         3.78882841480081   -2.40453288606611   -2.49221492348207
H         3.03781478399326   -3.14297601586757   -2.22542803585611
H         3.40008627270232   -1.81820614091637   -3.32142350659325
H         4.70077992531930   -2.90260663542477   -2.80727188942924
H        -3.34267954172952   -3.79148068768718   -2.78990388043680
H        -4.97965384950424    1.89956497500491    0.77895387141650
C         0.23590000000106   -1.68139999999982    2.96030000000131
C        -1.06604169786425   -1.96232620599322    3.34201856782736
C         1.19671124777900   -1.65545000370182    3.98017117866648
C        -1.43988850343639   -2.09322212561093    4.68408297405676
H        -1.84215159821236   -2.08781490298606    2.59901629994432
C         0.80809700530886   -1.80384041331122    5.33717066629292
C         2.61570710280297   -1.53081479548237    3.98318561215557
C        -0.51751078673115   -2.00647066404639    5.70368792691868
H        -2.47985757590144   -2.27663098240904    4.91916360688600
N         1.93588678872016   -1.74888544424393    6.10333658304454
C         3.02141320561080   -1.59325053028738    5.28074850135303
H         3.21512026330552   -1.41432752444306    3.10504155203577
H        -0.80832151010665   -2.11317265955478    6.73854646697200
H         1.96838755640335   -1.83867918699306    7.10396162320278
H         4.01019749934079   -1.53916300391921    5.69594137455680
