9
 energy: -21.448805452965 gnorm: 0.000115028469 xtb: 6.4.1 (1a32961)
C        -0.44478794796502   -1.17671496400543    0.00558674663546
C        -1.15503960770088   -0.01703023105507    0.00197812916655
C        -0.32519123174517    1.12673430746838    0.00009085063452
C         0.99373741941901    0.80197596051817    0.00252990774725
Br        2.44706309366297    1.99487254571330    0.00179152481188
S         1.27167323112720   -0.91189821676443    0.00721195640624
Cl       -1.07479594607478   -2.77013917065376    0.00897424266110
H        -2.22775157887903    0.02301288928397    0.00050612154226
H        -0.69230743184431    2.13607687949486   -0.00289947960526
