118
 energy: -179.815902737129 gnorm: 0.001488837511 xtb: 6.4.1 (1a32961)
N        -0.96509999999692   -2.11530000000086   -0.24090000000138
C        -2.24700000001045   -1.69839999999283   -0.36219999999160
C        -3.14039999999674   -2.36819999999722   -1.21200000000488
C        -2.70220000000041   -3.47559999999970   -1.93049999999911
C        -1.37779999997918   -3.89880000000402   -1.78759999999432
C        -0.54290000001348   -3.18669999999853   -0.93510000000205
H         0.49810000000152   -3.45630000000062   -0.78939999999942
H        -0.99569999999725   -4.76030000000240   -2.32770000000107
H        -4.16500000000570   -2.02889999999896   -1.31830000000232
C        -2.62129999999905   -0.50950000000170    0.44100000000692
N        -1.62600000000252    0.07329999999523    1.16019999999229
C        -1.89680000000353    1.15239999999949    1.91689999999478
C        -3.17230000000309    1.70330000001109    1.99649999999473
C        -4.20509999999758    1.11740000000777    1.26269999998865
C        -3.92609999999253    0.00249999999240    0.47819999999385
H        -4.71960000000251   -0.46420000000063   -0.09519999999765
H        -3.34629999999965    2.57509999999188    2.62069999999871
H        -1.04449999999872    1.57420000000063    2.43689999999734
Ir        0.42149999999983   -0.81650000000016    0.91329999999988
H         0.87260000000009   -2.23029999999963    1.54050000000011
B         0.50670000000135    0.41560000000359   -0.81539999999727
O         0.19500000000140   -0.04699999999392   -2.09149999999835
C         0.00650000000016    1.10039999999905   -2.95430000000604
C         0.49020000000471    0.74739999999862   -4.35779999999947
H         1.51609999999859    0.37379999999719   -4.33699999999966
H         0.44730000000066    1.62240000000019   -5.01669999999935
H        -0.14739999999775   -0.03389999999780   -4.78429999999827
C        -1.50120000000772    1.39560000000227   -2.96670000000223
H        -1.75370000000059    2.21460000000246   -3.64850000000105
H        -2.03200000000006    0.49449999999972   -3.28930000000030
H        -1.85169999999625    1.65210000000043   -1.96219999999956
C         0.84229999999381    2.20670000000281   -2.22040000000220
O         0.75199999999929    1.78259999999670   -0.83690000000429
C         2.32929999999404    2.18620000000535   -2.59899999999873
H         2.74130000000031    1.18500000000036   -2.45750000000082
H         2.48870000000093    2.51300000000081   -3.63180000000091
H         2.87200000000038    2.86269999999876   -1.93200000000042
C         0.28440000000410    3.62290000000150   -2.33660000000046
H        -0.72650000000001    3.69039999999977   -1.92909999999883
H         0.92130000000095    4.31480000000506   -1.77609999999983
H         0.26430000000233    3.94810000000147   -3.38320000000399
B         1.56299999999927    0.60960000000046    1.84840000000048
O         2.92779999999952    0.55230000000044    2.15019999999979
C         3.36329999999977    1.88660000000130    2.50259999999980
C         4.53140000000926    1.78589999999858    3.47739999999856
H         4.27909999999922    1.16090000000105    4.33689999999630
H         5.39390000000012    1.33790000000193    2.97339999999994
H         4.82390000000015    2.77869999999986    3.83820000000090
C         3.79699999999986    2.56850000000009    1.19670000000057
H         4.20019999999994    3.57089999999997    1.37680000000020
H         4.56740000000025    1.95559999999929    0.72110000000019
H         2.95239999999956    2.63260000000003    0.50540000000063
C         2.05040000000229    2.50089999999922    3.09319999999805
O         1.03749999999752    1.81620000000044    2.31910000000430
C         1.89100000000227    4.00449999999939    2.88649999999602
H         1.87290000000046    4.25440000000092    1.82410000000096
H         0.94939999999796    4.34259999999902    3.33169999999889
H         2.71079999999697    4.55150000000068    3.36629999999960
C         1.82469999999840    2.13200000000318    4.56519999999987
H         1.92609999999987    1.05330000000003    4.71319999999998
H         2.52609999999736    2.65279999999924    5.22540000000179
H         0.80629999999673    2.41580000000119    4.84900000000059
B         2.27819999999919   -1.33089999999835    0.17410000000037
O         2.89459999999489   -2.57739999999884    0.38450000000015
C         4.26929999999959   -2.48200000000130   -0.07209999999495
C         5.10900000000448   -2.05380000000051    1.14009999999951
H         4.76350000000046   -1.08739999999916    1.51749999999915
H         4.98050000000014   -2.79470000000239    1.93589999999955
H         6.17420000000061   -1.99289999999989    0.89299999999886
C         4.71950000001233   -3.84660000000272   -0.58469999999145
H         4.75279999999991   -4.56129999999631    0.24419999999688
H         5.72329999999793   -3.78369999999995   -1.02009999999934
H         4.03500000000088   -4.23600000000070   -1.34170000000034
C         4.16440000000459   -1.36219999999726   -1.16300000000079
O         3.08520000000381   -0.55030000000014   -0.65400000000050
C         5.40719999999788   -0.48869999999834   -1.31550000000448
H         6.27319999999519   -1.09009999999752   -1.61529999999984
H         5.23299999999836    0.26929999999837   -2.08589999999954
H         5.64269999999802    0.02650000000035   -0.38239999999925
C         3.71799999999707   -1.89830000000087   -2.53109999999875
H         2.82530000000608   -2.52160000000115   -2.42740000000050
H         3.46089999999993   -1.05249999999839   -3.17549999999992
H         4.50570000000153   -2.48289999999807   -3.01789999999985
H        -3.38500000000517   -4.00129999999650   -2.59309999999941
H        -5.21399999999994    1.52080000000149    1.29960000000084
C         0.23590000000249   -1.68139999999980    2.96030000000064
C        -1.05686546073403   -1.89385015931945    3.41258954818815
C         1.29099158858561   -1.83376374306014    3.90032579319665
C        -1.31312539077358   -2.10224397476715    4.76477048073868
H        -1.89625490003939   -1.90085548222553    2.73149559679245
C         2.63396451975642   -1.81930807043693    3.45629297144415
C         1.04652871726634   -2.06626697988558    5.28619683864530
C        -0.29602784605484   -2.17080384666076    5.69748530695614
H        -2.33582103277311   -2.22709559753993    5.09503846722812
C         3.69674770722694   -1.91993812108055    4.30099921949345
H         2.78759113602038   -1.73930933325990    2.39608063964458
N         2.09213259983624   -2.23559185586528    6.17877866869327
H        -0.55204923907014   -2.33291543799166    6.73185076750481
B         3.46623150901678   -2.15749663079476    5.76322446433677
H         4.68952165733316   -1.87576290234790    3.87683037501016
C         1.77624208555359   -2.57124234482995    7.56452248028217
C         4.80992362400670   -2.37367463409146    6.59175359459284
H         2.71497302962788   -2.71146221587563    8.10316029685498
H         1.19689563083619   -3.50370519084393    7.61763566461252
H         1.20647902281970   -1.76551511980239    8.04721945982637
C         5.35437777501286   -1.43715535462732    7.47712318143307
C         5.65132113471687   -3.40987146893833    6.16204579479202
C         6.68515776837668   -1.48972647850175    7.86872499539123
H         4.73994484844009   -0.62527266045543    7.83843691506407
C         6.97929401994531   -3.48710787353590    6.54449432442804
H         5.26242142011584   -4.15306670448334    5.48270426350025
C         7.50462674913980   -2.50703236693233    7.38376872081031
H         7.09794071163209   -0.73747489912037    8.52548659208488
H         7.61765310735929   -4.27837888326345    6.17696004484744
C         8.97145553042400   -2.51610024681315    7.68275106083367
F         9.31307584586216   -1.84229026631829    8.81293539468740
F         9.49118925118286   -3.76507245211479    7.82903528092781
F         9.71361486988271   -1.94278905033748    6.68946314334013
