118
 energy: -179.840001389456 gnorm: 0.000757234536 xtb: 6.4.1 (1a32961)
N        -1.03216971560473   -2.02181540937314   -0.25693743868223
C        -2.30957902886449   -1.59593891594989   -0.25481038811868
C        -3.29460051656828   -2.27303922150722   -0.98649450073971
C        -2.95459330503631   -3.37556604215351   -1.73866841620152
C        -1.62487539937796   -3.79102974737287   -1.74789539806195
C        -0.71442815253742   -3.08424423403722   -0.99022508622903
H         0.32564783015602   -3.37623634846031   -0.95614750966228
H        -1.31250855409079   -4.64614253381658   -2.32475676229138
H        -4.31987080764333   -1.94202260749822   -0.96407929944615
C        -2.59695571062781   -0.40938064982456    0.54088873957196
N        -1.56934727745050    0.10438555037793    1.24776608553622
C        -1.78430469581593    1.18298121761140    1.99694937460208
C        -3.00924351505007    1.81061592507302    2.09464341809331
C        -4.07803517249121    1.30067991507185    1.36109574827512
C        -3.86424331533496    0.18774590408019    0.57758711657663
H        -4.67760423331286   -0.21393490295146   -0.00372254379001
H        -3.13023113251837    2.67350134476195    2.72961368819833
H        -0.92375578257513    1.54389646432106    2.53877486913592
Ir        0.42149999999970   -0.81650000000043    0.91329999999973
H         0.87260000000013   -2.23029999999963    1.54050000000023
B         0.24850220363810    0.66131378015646   -0.55334290696648
O        -0.50881751813715    0.40986620514229   -1.68544301060214
C        -0.76760999638763    1.63343869145133   -2.38151614020925
C        -0.69530403799826    1.39772460630313   -3.88791424004406
H         0.23236127790215    0.90394616077648   -4.15743811405365
H        -0.77404163104947    2.34344737578761   -4.41818186462615
H        -1.52108901109893    0.75673732557226   -4.18797930060061
C        -2.19096610497258    2.07501885094051   -2.01010420162148
H        -2.47854485006070    2.96910584867731   -2.55542165865404
H        -2.88216184159167    1.27135287526992   -2.25711559311152
H        -2.25911200385270    2.26190214011635   -0.94036312602869
C         0.32495182342180    2.58926526194712   -1.80252788060514
O         0.61924470827395    1.98780528234003   -0.53512407242015
C         1.62118972367379    2.55722869694739   -2.62117044593550
H         1.96478018190867    1.52889878826873   -2.70554533727011
H         1.47803947754705    2.99388863218536   -3.60537239699446
H         2.38451802040715    3.12007615010996   -2.08925810032516
C        -0.12012891862334    4.03681664929936   -1.60455334329812
H        -0.91996206083273    4.10661474779267   -0.87365364429060
H         0.72159577622040    4.62234766146072   -1.24268771562985
H        -0.45625222441814    4.45515191237700   -2.54992201694883
B         1.63396765602396    0.64589491479481    1.79308783616854
O         2.96034919065194    0.91112944008961    1.55378597943669
C         3.34863658710449    2.13966287411847    2.18172035936933
C         4.73793056976986    1.98289080578287    2.79915171197040
H         4.77869771346491    1.11187815667258    3.44473199589844
H         5.46739357950587    1.85168763907226    2.00379103031411
H         4.99940035563923    2.87218071410038    3.36596208730001
C         3.39757887551231    3.19940062450349    1.07441132771230
H         3.66462882169960    4.17613422154234    1.46670539368261
H         4.14024277886024    2.89654552883649    0.33967687587885
H         2.43262292700232    3.23624567630331    0.57606539570332
C         2.19339056202205    2.38298722420360    3.21366205479496
O         1.14661940588224    1.53100959815503    2.72908313064203
C         1.67780815976391    3.82090024512579    3.27374753211237
H         1.25913741470343    4.12060869364605    2.31871813317502
H         0.89477458331338    3.88492167673830    4.02545243338559
H         2.48238122786147    4.49721081185162    3.54884726285098
C         2.53930889832726    1.91580967805213    4.63280435849819
H         2.87011259981167    0.88109567362647    4.61894978054045
H         3.30731244101930    2.54581884755640    5.07084751721750
H         1.64178439014898    1.97405208579944    5.24381820595413
B         2.27819999999998   -1.33089999999832    0.17409999999944
O         3.18488436821331   -2.27680217859690    0.60319039019142
C         4.38032915992178   -2.21322351764244   -0.18605197723955
C         5.39906730877528   -1.40792547055249    0.62708765839948
H         4.97410006593750   -0.43546820669518    0.86025956314758
H         5.58356897523875   -1.92932610179338    1.56315413086908
H         6.33696524353995   -1.29774847219832    0.09177545200593
C         4.91182680697945   -3.62594858419547   -0.42003521118135
H         5.21533864132571   -4.04937683279570    0.53359801880945
H         5.77213348517626   -3.59492971050505   -1.08279563468687
H         4.14881432006952   -4.26859111349009   -0.84625932029401
C         3.90040709851705   -1.45964536643073   -1.47336596745265
O         2.70810028424661   -0.80154958523125   -1.02514177663912
C         4.87833758102984   -0.41924484933004   -2.01506919285899
H         5.82939091079682   -0.88434752380426   -2.25976915204787
H         4.46091035329107    0.02308680969404   -2.91618576282733
H         5.02947959518630    0.37183213612049   -1.28902617018097
C         3.49370322786592   -2.40872844631277   -2.60964677837073
H         2.77717134776165   -3.14080293193899   -2.24722319477447
H         3.01067813366334   -1.82678051807487   -3.39078109404314
H         4.35899298151901   -2.91440797600726   -3.02746369422826
H        -3.70434467728619   -3.90510833672829   -2.30676854089360
H        -5.05160890630689    1.76534003812607    1.40268226811517
C         0.23590000000182   -1.68140000000086    2.96030000000116
C        -1.07056459469121   -1.94197618470017    3.32486359663130
C         1.23632693273763   -1.69472109682213    3.96799942836619
C        -1.42272771957070   -2.04013134181375    4.66785924721319
H        -1.84685652018156   -2.06946544258983    2.58430571440871
C         2.61820367760926   -1.63436079221239    3.61358105066719
C         0.88464648343285   -1.83641075489341    5.33804309246013
C        -0.47455318923755   -1.96654659297412    5.66140489651316
H        -2.46039261708182   -2.18841023137790    4.93470544258200
C         3.60374263298399   -1.70625128253050    4.53825744282708
H         2.84426490955464   -1.55897994702913    2.56629226000636
N         1.86471662385294   -1.89054979548662    6.31417017433058
H        -0.79892085684085   -2.04516550848106    6.68516391291120
B         3.23840517710756   -1.85187650368250    6.00236937658187
H         4.62882079045219   -1.67533773808598    4.19165911645079
C         1.43422021905607   -2.05589994571855    7.69201259104222
C         4.41025624054152   -2.02779251818958    7.05187697851891
H         2.31512225400346   -2.08326411024984    8.32787786746190
H         0.88512366289776   -2.99094752577126    7.81933886264290
H         0.80181165687330   -1.22364979740636    8.00585674071723
C         4.86520063709485   -1.00163005784517    7.88037506180220
C         5.14044073119432   -3.21956442253335    7.04373979112487
C         6.00456422748731   -1.14116283353562    8.65275416259060
H         4.32690486390521   -0.06646244119283    7.90941985378072
C         6.27631101273196   -3.38324778652824    7.81183443308575
H         4.81418172879692   -4.02979334819964    6.40965446070617
C         6.71335948821213   -2.33533120338833    8.61513022231491
H         6.35054175906957   -0.33158118381375    9.27775895990528
H         6.83290693326477   -4.30848459882190    7.78841422064370
C         7.98295947206392   -2.49116628525775    9.38766072119087
F         8.09576945449093   -1.64500803859103   10.42855546048719
F         8.14922684556277   -3.72853681711079    9.89957753543144
F         9.08572579354649   -2.27274022819983    8.62690054405678
