98
 energy: -145.481937051286 gnorm: 0.000652852837 xtb: 6.4.1 (1a32961)
N        -0.97607706026800   -1.99195052379945   -0.37306013829475
C        -2.20586126864879   -1.47302061792092   -0.53966866683486
C        -3.09327441851297   -2.01445007512082   -1.47736751236750
C        -2.70166490317920   -3.08504216216612   -2.25266531055774
C        -1.42280366366700   -3.60409252706740   -2.07602926623717
C        -0.60732057245532   -3.02349363785543   -1.12578535222934
H         0.39091143973407   -3.39715150927792   -0.94724558446022
H        -1.07353989360722   -4.43895917539547   -2.66106209729366
H        -4.08034553687544   -1.60194567126415   -1.60307116074917
C        -2.54194049056723   -0.32193033922969    0.29427688834830
N        -1.58670430032166    0.10377509035549    1.14678557930963
C        -1.84310990414038    1.15262621558656    1.92571762077965
C        -3.04088324660142    1.83816925441239    1.90739981558716
C        -4.03208510310016    1.41967841555268    1.02467320523939
C        -3.77577805722967    0.33388230306419    0.21384612058835
H        -4.53125622559495   -0.00003408993189   -0.47730718683702
H        -3.19869769723418    2.67575139429340    2.56700673008148
H        -1.04006732484886    1.44375529034636    2.58596612302930
Ir        0.42149999999986   -0.81649999999977    0.91330000000022
H         0.87260000000008   -2.23030000000002    1.54049999999997
B         0.37119643580260    0.61706705203874   -0.59473471779753
O        -0.14214923257380    0.29553335086962   -1.83350774791200
C        -0.26220179794242    1.47803279826049   -2.63531509534716
C         0.16229336452843    1.16949475832402   -4.06823701854085
H         1.13631886853400    0.69228038283857   -4.08310249092763
H         0.19258843445587    2.08387404195427   -4.65493888513358
H        -0.55748657606076    0.48818830111972   -4.51517845483147
C        -1.74267978325673    1.88417052283997   -2.61979649745019
H        -1.91736531867289    2.74866028162071   -3.25325546857151
H        -2.33630812981210    1.04941387120428   -2.98704419865493
H        -2.06121858447087    2.10452312011355   -1.60278435954321
C         0.65357208780567    2.49439890319919   -1.87780160001842
O         0.67697752518482    1.95710876457605   -0.54658225958078
C         2.09918489060512    2.46685641188162   -2.38732846608293
H         2.47637022452668    1.44825696762972   -2.33281823720204
H         2.16917860135234    2.84892535869615   -3.40145319108681
H         2.71116091447927    3.08241668544425   -1.73294830735717
C         0.14394732884727    3.93341871855057   -1.85363329591227
H        -0.80599804181722    4.00856171386724   -1.33344907053148
H         0.86585801233398    4.55828687098209   -1.33341460085230
H         0.03067967542266    4.30303155817965   -2.86944303737531
B         1.60957560598514    0.63755015802274    1.84095837605491
O         2.87078579679377    1.05989258051205    1.54682982995840
C         3.22273561064336    2.22092979770033    2.31529390036545
C         4.58911609529528    1.98672305313230    2.96236810338790
H         4.60416444483413    1.03683428051239    3.48781972695831
H         5.34734563790688    1.95011922859421    2.18444567070142
H         4.83099565541976    2.79415198300202    3.64684607064182
C         3.32401670313189    3.38711790229788    1.32597479022040
H         3.54127150981683    4.32077744030488    1.83547408713910
H         4.12594902866023    3.17291584620013    0.62340780750597
H         2.39793535550109    3.46693353615884    0.76426991058907
C         2.03070679076944    2.36002195592639    3.33574108578325
O         1.09183473076278    1.37254292373863    2.88501488239806
C         1.32895995072308    3.72080968352618    3.31851981860441
H         0.91393984261208    3.92519434411395    2.33691919420114
H         0.51345160434649    3.70215233515501    4.03782620877721
H         2.02051608136222    4.50998572976315    3.59755402297112
C         2.40108139975372    2.02308833344384    4.78488179774013
H         2.86866673484969    1.04590806673365    4.84636508836847
H         3.07067449889532    2.77249206255290    5.19537880548757
H         1.49092241424400    2.00189409899370    5.38051227516278
B         2.27820000000063   -1.33089999999865    0.17409999999973
O         3.14610702648202   -2.22690626428752    0.75219023847510
C         4.40853104038950   -2.19407467723084    0.06769837250543
C         5.33903741091985   -1.31628831174933    0.90777645227920
H         4.89937454668658   -0.32835515820213    1.00764277553584
H         5.40744976617953   -1.74350737881498    1.90454530953609
H         6.33109924711912   -1.25553415939938    0.47128201672649
C         4.97792822975889   -3.60871550372834   -0.01915049454631
H         5.19799117429286   -3.95688793729344    0.98645157104676
H         5.89557498497396   -3.60566402114775   -0.60055175595871
H         4.26732951424505   -4.29580200273664   -0.46670756450163
C         4.03426909860200   -1.53944909040960   -1.30707008431003
O         2.79354762604471   -0.87383764457075   -1.01412860345947
C         5.04374479812779   -0.51847461821556   -1.82673437748254
H         6.02361034061190   -0.97657416225434   -1.92716068651723
H         4.72147519594987   -0.16137564690955   -2.80177974808014
H         5.10279008638731    0.33077575964372   -1.15488576900451
C         3.74526326224733   -2.56940134073090   -2.40709491556365
H         3.01598233403931   -3.29567837016153   -2.05896272678744
H         3.32218670568023   -2.05268644374368   -3.26512338750081
H         4.65482534813096   -3.07810719891478   -2.71129689337104
H        -3.37464176800755   -3.50869563758786   -2.98235932300514
H        -4.98080643227848    1.93168748495468    0.97339644753164
C         0.23590000000110   -1.68140000000064    2.96029999999732
C        -1.07336222105100   -2.04071930946415    3.30228079204759
C         1.16287540383796   -1.57655697858955    4.01315236235681
C        -1.48351220079544   -2.15640821909291    4.61252908839998
H        -1.79720134305202   -2.22749722872475    2.52248200537595
C         0.76678846199072   -1.69726593117706    5.34455326567476
C         2.54630213327064   -1.37644127816305    3.80698577943239
C        -0.56437690185254   -1.96398822360657    5.65286813407200
H        -2.50894279132585   -2.40094038848743    4.85000731381612
H         1.49480907597808   -1.58923653432765    6.13626161846646
N         3.68959992630068   -1.26557137226021    3.80124482045127
C        -0.97874881947519   -2.06654875946589    6.99489203442006
N        -1.32852112390783   -2.14404274039574    8.08698682050734
