109
 energy: -157.494110470816 gnorm: 0.007881237550 xtb: 6.4.1 (1a32961)
N        -0.96510000000038   -2.11529999999985   -0.24090000000015
C        -2.24700000000022   -1.69839999999949   -0.36220000000032
C        -3.14040000000023   -2.36819999999974   -1.21200000000025
C        -2.70219999999988   -3.47559999999993   -1.93049999999998
C        -1.37780000000114   -3.89880000000034   -1.78760000000008
C        -0.54290000000010   -3.18669999999997   -0.93509999999983
H         0.49810000000001   -3.45629999999992   -0.78940000000001
H        -0.99569999999992   -4.76029999999997   -2.32769999999984
H        -4.16499999999975   -2.02889999999997   -1.31829999999994
C        -2.62130000000011   -0.50949999999989    0.44100000000059
N        -1.62599999999988    0.07329999999990    1.16020000000004
C        -1.89680000000026    1.15240000000070    1.91689999999979
C        -3.17229999999959    1.70329999999929    1.99649999999989
C        -4.20509999999971    1.11740000000006    1.26269999999998
C        -3.92610000000018    0.00250000000017    0.47819999999937
H        -4.71959999999961   -0.46420000000004   -0.09519999999998
H        -3.34629999999998    2.57509999999993    2.62069999999912
H        -1.04449999999981    1.57420000000006    2.43690000000008
Ir        0.42150000000000   -0.81650000000005    0.91330000000004
H         0.87260000000005   -2.23030000000001    1.54049999999998
B         0.50670000000002    0.41559999999986   -0.81539999999981
O         0.19499999999983   -0.04699999999972   -2.09150000000012
C         0.00650000000128    1.10040000000057   -2.95429999999977
C         0.49020000000142    0.74740000000057   -4.35779999999941
H         1.51610000000019    0.37380000000011   -4.33700000000001
H         0.44729999999996    1.62239999999937   -5.01670000000006
H        -0.14739999999998   -0.03390000000014   -4.78430000000008
C        -1.50119999999958    1.39560000000025   -2.96670000000133
H        -1.75369999999995    2.21459999999960   -3.64850000000052
H        -2.03199999999991    0.49449999999987   -3.28929999999984
H        -1.85170000000005    1.65209999999996   -1.96220000000014
C         0.84230000000094    2.20670000000007   -2.22040000000008
O         0.75199999999998    1.78260000000005   -0.83690000000013
C         2.32929999999933    2.18620000000007   -2.59900000000053
H         2.74130000000016    1.18500000000005   -2.45750000000000
H         2.48869999999996    2.51300000000003   -3.63180000000024
H         2.87200000000045    2.86270000000006   -1.93200000000015
C         0.28439999999920    3.62290000000058   -2.33660000000052
H        -0.72650000000099    3.69040000000002   -1.92910000000020
H         0.92130000000050    4.31479999999999   -1.77610000000001
H         0.26429999999977    3.94810000000013   -3.38319999999906
B         1.56300000000026    0.60960000000018    1.84840000000002
O         2.92779999999994    0.55230000000006    2.15020000000019
C         3.36330000000049    1.88659999999995    2.50260000000030
C         4.53140000000004    1.78589999999981    3.47739999999996
H         4.27909999999992    1.16089999999989    4.33689999999966
H         5.39389999999999    1.33789999999995    2.97339999999996
H         4.82390000000008    2.77870000000028    3.83819999999995
C         3.79699999999986    2.56849999999997    1.19670000000001
H         4.20019999999999    3.57090000000001    1.37679999999997
H         4.56739999999991    1.95560000000007    0.72109999999998
H         2.95239999999998    2.63260000000000    0.50540000000003
C         2.05039999999997    2.50089999999982    3.09319999999937
O         1.03749999999981    1.81620000000021    2.31909999999990
C         1.89099999999948    4.00450000000004    2.88650000000057
H         1.87289999999993    4.25439999999998    1.82410000000021
H         0.94940000000016    4.34259999999992    3.33169999999983
H         2.71079999999999    4.55150000000000    3.36629999999987
C         1.82470000000059    2.13200000000002    4.56520000000022
H         1.92609999999995    1.05329999999981    4.71320000000012
H         2.52610000000023    2.65279999999992    5.22539999999999
H         0.80629999999995    2.41580000000000    4.84899999999990
B         2.27819999999977   -1.33089999999982    0.17409999999999
O         2.89459999999973   -2.57739999999988    0.38450000000004
C         4.26929999999922   -2.48199999999964   -0.07210000000027
C         5.10899999999964   -2.05380000000007    1.14009999999899
H         4.76350000000010   -1.08740000000011    1.51749999999979
H         4.98050000000006   -2.79469999999958    1.93589999999963
H         6.17420000000009   -1.99290000000001    0.89299999999984
C         4.71950000000045   -3.84659999999970   -0.58469999999842
H         4.75279999999999   -4.56130000000097    0.24420000000025
H         5.72330000000012   -3.78369999999995   -1.02010000000011
H         4.03499999999988   -4.23600000000004   -1.34170000000029
C         4.16439999999993   -1.36219999999998   -1.16300000000056
O         3.08520000000010   -0.55030000000007   -0.65400000000010
C         5.40719999999946   -0.48870000000031   -1.31549999999924
H         6.27319999999969   -1.09010000000001   -1.61530000000001
H         5.23299999999996    0.26929999999991   -2.08590000000002
H         5.64269999999984    0.02650000000010   -0.38240000000042
C         3.71800000000012   -1.89829999999992   -2.53110000000024
H         2.82529999999988   -2.52159999999988   -2.42740000000003
H         3.46090000000003   -1.05250000000037   -3.17549999999958
H         4.50569999999999   -2.48289999999982   -3.01790000000032
H        -3.38500000000009   -4.00129999999976   -2.59309999999982
H        -5.21399999999994    1.52079999999989    1.29960000000027
C         0.23589999999951   -1.68139999999947    2.96030000000044
C        -0.77781862960780   -1.31906648905883    3.81220175663218
N         1.42194072044943   -1.60148045214786    3.74784876694071
C        -0.25293561035450   -1.00581617416962    5.08988527178602
H        -1.82539326009095   -1.27673372081513    3.56804816358433
C         1.09781419719307   -1.16763291447546    5.01874071554631
C         2.73206018135158   -2.10772043224177    3.56708617244602
H        -0.79809153115697   -0.67041783787063    5.95566519426785
H         1.85862249112189   -1.06100473699607    5.77358447630014
O         2.93749139596562   -3.15127138644826    2.99621502813324
O         3.66517673970946   -1.36930945721317    4.20580683374778
C         5.02676017897857   -1.74922681796009    4.62642106736736
C         5.26002917254550   -0.97298867182097    5.93173038665351
C         5.16913004610353   -3.25150220943842    4.88939439414498
C         6.17249165282655   -1.31276452502146    3.69337722825176
H         4.45691854440696   -1.12699839459756    6.65064769868372
H         5.35045944896493    0.09144240993934    5.72065697148602
H         6.19834067887698   -1.31181588580809    6.37154293941048
H         4.54270011077864   -3.56556135751597    5.72408799417786
H         6.21276907101656   -3.46059195716852    5.12796503504003
H         4.89115345239208   -3.82878383002164    4.00812235071547
H         5.86461696526755   -0.51414402668575    3.02740565672204
H         6.55079809413938   -2.14008375359779    3.09655213102661
H         7.00471171356473   -0.94071752517205    4.29068553281772
