102
 energy: -151.859526964080 gnorm: 0.000290277383 xtb: 6.4.1 (1a32961)
N        -0.95155438373014   -1.99805127606574   -0.36968051292823
C        -2.18969780262535   -1.49155201371881   -0.51713841944465
C        -3.04110613423947   -1.94969330270353   -1.52947883542025
C        -2.61476061294012   -2.94115988719730   -2.38611971032904
C        -1.33596302116312   -3.46458372059935   -2.21444900238414
C        -0.55182537092741   -2.95784395878252   -1.19924519849247
H         0.44808665123996   -3.33117562959227   -1.02937986821176
H        -0.96180909246201   -4.24330958255630   -2.85895602112266
H        -4.02224879414217   -1.52213382464360   -1.65568600429225
C        -2.56794134553159   -0.43123055640370    0.41057517812881
N        -1.59000891240212    0.04899951837446    1.20533800638038
C        -1.88111826434857    1.02678429716511    2.05847740474419
C        -3.14095951456976    1.57663006234668    2.18410210833731
C        -4.16450100278559    1.08381743107686    1.37956875575312
C        -3.87067815070776    0.07629616256312    0.48596009159066
H        -4.65116962745283   -0.32630048168343   -0.13810341582294
H        -3.32330744074369    2.36151319648829    2.90005217771517
H        -1.05437737363958    1.37246896763597    2.66002416026225
Ir        0.42149999999998   -0.81649999999995    0.91329999999991
H         0.87259999999996   -2.23029999999995    1.54050000000008
B         0.34953597609514    0.60213249046249   -0.60891103748541
O        -0.18919037383735    0.28278229440808   -1.84234771475158
C        -0.37844391592573    1.47148800758556   -2.61754325033942
C        -0.01741381299600    1.20024158151799   -4.07552409394228
H         0.96904466891113    0.75495563832497   -4.14949605930562
H        -0.04632499378979    2.12515779384755   -4.64591416428696
H        -0.73781242482858    0.50346143606477   -4.49718617595156
C        -1.86753717476863    1.83594816438732   -2.52409506526453
H        -2.09787739152475    2.70755957047512   -3.12959634447702
H        -2.45394446213052    0.99068857101103   -2.87899164683415
H        -2.14138310904196    2.02530938990856   -1.48791422993593
C         0.54272503522015    2.50103849959769   -1.88647855835795
O         0.63117535607448    1.95076147682051   -0.56510245876836
C         1.96672546340193    2.51385919377969   -2.45549558127250
H         2.37104703492869    1.50482753510826   -2.41998317944955
H         1.98508033682170    2.90046965335854   -3.47034613748151
H         2.58886512631681    3.14320186428382   -1.82407364664422
C         0.00103299376367    3.92770165840098   -1.82735211591998
H        -0.92674571427991    3.97469269068389   -1.26563935863232
H         0.72974861775722    4.56531444635555   -1.33257158714138
H        -0.16532913145746    4.30290250379840   -2.83397374684405
B         1.60149489632500    0.64976097840574    1.83202394053629
O         2.90560884683035    0.99892052507938    1.60150614017240
C         3.23521547102635    2.20943060018814    2.29595219763335
C         4.62507935912894    2.07878860662795    2.91943048348528
H         4.69667235434605    1.17762007716972    3.51946185067396
H         5.36526119758272    2.01521732737936    2.12584261056957
H         4.84453650657197    2.94774982483773    3.53360306253481
C         3.25215876377227    3.32569379669645    1.24497632992642
H         3.47046218817208    4.29125343173489    1.69155002113489
H         4.01811734820297    3.09258757288840    0.50888868699854
H         2.29320175405882    3.34690453524945    0.73441975109146
C         2.06194974713364    2.35534350590340    3.32796024362493
O         1.06583834827767    1.46481671500964    2.80885261782629
C         1.46644838090850    3.75977625719252    3.43201228997535
H         1.03383582736015    4.06463044090312    2.48494655778052
H         0.67881017137969    3.75475230252621    4.18176214834618
H         2.23070449818618    4.47111817262634    3.73249754615095
C         2.42567531729372    1.86538341903096    4.73532900962405
H         2.82924255124493    0.85935120426951    4.68741608234568
H         3.14627505483428    2.52834145502273    5.20446325660974
H         1.52081714835441    1.83924523683430    5.33840118695709
B         2.27819999999950   -1.33089999999957    0.17409999999979
O         3.11455766559034   -2.30350889376101    0.68074251508812
C         4.40904668033937   -2.20434329014930    0.07438785059370
C         5.29692514714287   -1.45189492801729    1.07096058434576
H         4.84228002281291   -0.48965535076551    1.28717029173908
H         5.32724137730139   -2.01886445168100    1.99800242357898
H         6.30702377019554   -1.32709034092150    0.69327345349732
C         4.97583252381069   -3.60447052187149   -0.15832737131100
H         5.13368686448614   -4.08198936379153    0.80506270722403
H         5.92632142390502   -3.53964904905504   -0.68056216415730
H         4.28869994229881   -4.21909263110943   -0.73024366429643
C         4.11825898129955   -1.37851299111781   -1.22721577116475
O         2.85705415481387   -0.75878760168708   -0.93621730521668
C         5.14655149886403   -0.29271857221508   -1.53924529985191
H         6.13768412096706   -0.72625107206068   -1.63949246480904
H         4.87822183363816    0.19355444673804   -2.47385052693363
H         5.14720032353817    0.45623456872951   -0.75505832559914
C         3.91791405109835   -2.25724601531353   -2.46951239683676
H         3.16723066697534   -3.01761722192815   -2.27327884917445
H         3.55645075908074   -1.63166337921208   -3.28201490725271
H         4.84972633744700   -2.72657450209582   -2.77015216908094
H        -3.25832802353877   -3.30014065992128   -3.17489159757555
H        -5.16702373213833    1.47695797040495    1.45436813199957
C         0.23589999999921   -1.68139999999975    2.96029999999837
C        -1.05061836255400   -2.05434994776831    3.32837361896245
C         1.19642660533948   -1.58778327868019    3.97339815626881
C        -1.35977293547674   -2.21399916834288    4.67491058618790
H        -1.82015241694866   -2.23227102031850    2.59342533168105
C         0.94464156489955   -1.74675165287866    5.32142949914271
F         2.49727858566312   -1.34728780996052    3.63650202887686
C        -0.36273131945436   -2.04894610619956    5.66286388456893
N        -2.54799957864774   -2.55110448014656    5.28343751362436
H         1.73662731450306   -1.65560679820057    6.04792112118876
N        -0.99265032608763   -2.29365603046965    6.85640793610708
C        -2.29745826612438   -2.58914055191601    6.56092423644728
H        -0.57695735084571   -2.26330432846674    7.77198292216482
C        -3.28406660835295   -2.92071965623087    7.61711727563168
H        -4.24774100886413   -3.10466282367274    7.15350353436879
H        -3.37468927781498   -2.09844805918521    8.32505520410748
H        -2.97050510530130   -3.81168020439375    8.15938583388387
