107
 energy: -165.337196897690 gnorm: 0.000344863962 xtb: 6.4.1 (1a32961)
N        -0.95675438346727   -1.98412922942174   -0.39576037421209
C        -2.20104946520084   -1.49014008792982   -0.51646159038989
C        -3.05721859409592   -1.93108447026180   -1.53166038747111
C        -2.62837458443806   -2.89526810198063   -2.41867593396448
C        -1.34279955163020   -3.40720109690629   -2.27431714068486
C        -0.55389732117328   -2.91560536833575   -1.25443082438465
H         0.45321577509991   -3.27825189334523   -1.10743121714815
H        -0.96614059045022   -4.16437526841620   -2.94229921830103
H        -4.04385837617377   -1.51114342409684   -1.63772239597123
C        -2.59063574345510   -0.45803369816058    0.44148881856529
N        -1.61387170629269    0.03637246893384    1.22457122212193
C        -1.91364523957238    0.99486692303012    2.09508480592873
C        -3.18621633635338    1.50632925251771    2.25515150871420
C        -4.21140947505129    0.98968321257541    1.47024755849229
C        -3.90670452599593    0.00468630208272    0.55462984453418
H        -4.69007006433899   -0.41602619690243   -0.05363768408521
H        -3.37621049261913    2.27530129715115    2.98584886309341
H        -1.08388897814328    1.35922875404539    2.68113869568905
Ir        0.42150000000000   -0.81650000000000    0.91330000000006
H         0.87259999999980   -2.23029999999984    1.54050000000008
B         0.32905054596227    0.65327604162794   -0.56621559502431
O        -0.41899244791861    0.44346929130853   -1.71094897768089
C        -0.59609922761823    1.68055813621348   -2.41037087897709
C        -0.51376054488356    1.44126671428558   -3.91546105810498
H         0.39278157824838    0.90393528577346   -4.17268795438305
H        -0.53982564046822    2.38986811095744   -4.44551095137205
H        -1.36503939521106    0.84064446623872   -4.22701810910440
C        -1.99821961693381    2.19740386747713   -2.05612901716898
H        -2.22417789791776    3.11744581001882   -2.58669096272953
H        -2.72919397764617    1.43990970635537   -2.33257385011870
H        -2.07511109804597    2.36362719482382   -0.98331199028501
C         0.54206794822522    2.57162248415326   -1.81503266900810
O         0.78665914566166    1.94980342699537   -0.54540405446418
C         1.84604293394210    2.46912054724939   -2.61522961508635
H         2.13296888903607    1.42367450616421   -2.69903072169154
H         1.74237467444841    2.91726300454169   -3.59903428439580
H         2.63114279861379    2.98677476448040   -2.06938438549551
C         0.17618565792642    4.04094262246032   -1.61622216153204
H        -0.62269059970170    4.15204823643039   -0.88951060762236
H         1.04643567786471    4.57951308399079   -1.24876057296650
H        -0.13104245825782    4.47891088614425   -2.56235277038930
B         1.57434319208364    0.65659956152371    1.84367261697654
O         2.92205428074032    0.88244558015742    1.74163108248481
C         3.27304719955850    2.13072691617397    2.35662295412567
C         4.55639730522711    1.95227339165422    3.16733196674370
H         4.45567471169680    1.13660241973405    3.87503933826458
H         5.37258135913363    1.71508609766666    2.49006021918738
H         4.79675188936025    2.86985186921785    3.69689804851437
C         3.52466502296808    3.12133304729602    1.21413521880766
H         3.76378821571665    4.11177368144021    1.58884153420188
H         4.35889321647098    2.75737476657939    0.61893487613109
H         2.64674019262208    3.15422852682869    0.57510114506825
C         1.99897736538828    2.47586547416134    3.20772863470651
O         1.00384995518664    1.59187654131823    2.67325586982588
C         1.50420810161243    3.91529232765352    3.06475773121395
H         1.22099879915520    4.12053137001511    2.03774179449737
H         0.62786410465375    4.05194889275259    3.69376920143617
H         2.27354067204588    4.61344527295344    3.38193530261203
C         2.14739015332283    2.14467072589562    4.69786880666462
H         2.43425919566773    1.10525273484257    4.82854758058595
H         2.87971584632888    2.79203085609478    5.16995290860869
H         1.18558838521303    2.28678415723350    5.18526767318473
B         2.27820000000014   -1.33089999999840    0.17409999999834
O         3.20587194666897   -2.17672828357942    0.74255387263573
C         4.43349440335933   -2.14742427352169   -0.00035315166283
C         5.40204866218664   -1.26315655081490    0.79179279343189
H         4.93720651766485   -0.29603291595479    0.96058401835454
H         5.57922924500700   -1.72617102414961    1.75930554385974
H         6.35011065053657   -1.14987211938248    0.27583693695800
C         5.00043617392179   -3.56333087920340   -0.09712658654351
H         5.25227578946808   -3.90994084489225    0.90167260893466
H         5.89880021308124   -3.56428567547812   -0.70775803355200
H         4.27533896985342   -4.25184363620325   -0.51766947809052
C         3.99711905303187   -1.51060138529633   -1.36689331026660
O         2.73738599909306   -0.89889376615443   -1.04746095863844
C         4.94461503391603   -0.44224259546314   -1.90961378580723
H         5.93652795633639   -0.85768773349083   -2.06348054154932
H         4.56336793335274   -0.08256726323469   -2.86186555156691
H         4.99704210066016    0.39891274534621   -1.22728053298476
C         3.73191882438586   -2.54990365971530   -2.46415460188320
H         3.03203620313748   -3.30174292765308   -2.11071510352588
H         3.28185601660465   -2.04692263103303   -3.31629085135466
H         4.65460527836449   -3.02621524649121   -2.78088645458550
H        -3.27689534037907   -3.24039112553316   -3.20940450970303
H        -5.22426941243464    1.34662663093143    1.57666150031919
C         0.23590000000112   -1.68139999999872    2.96030000000055
C        -1.07469989147398   -1.96960751273198    3.27925680122812
C         1.17143716887025   -1.60486045843522    4.02565054000924
C        -1.51265335739827   -1.98749187870069    4.61451228928874
H        -1.80847576356524   -2.17853427256348    2.51448372391509
C         0.72492558157402   -1.64118178099960    5.37961969772022
C         2.56919096014788   -1.54786276392163    3.82754727281528
C        -2.97456519660699   -2.19112980284681    4.84368878785517
C        -0.64767180590499   -1.79416252793005    5.66135884867668
N         1.57111763054536   -1.56169447861274    6.42610110793041
C         3.40507538706947   -1.49709844367635    4.90919103336691
H         2.94523722855655   -1.56434287859899    2.81795472794692
F        -3.72346906455538   -1.17024471499805    4.35500311863444
F        -3.45780957170458   -3.29570551606709    4.22956407286683
F        -3.32644952847485   -2.30868722569936    6.13394307492137
H        -0.97681908173970   -1.79149544872107    6.68753291047535
C         2.86011699955733   -1.48722325841216    6.21284952234383
H         4.47704173536945   -1.46985531309060    4.78466342673650
C         3.75593992545034   -1.41678617304502    7.40830602959681
H         3.15729001686505   -1.38795885128729    8.31317634380232
H         4.38405165263171   -0.52978241791706    7.35712671426627
H         4.40594696720884   -2.28977277311860    7.43392170836826
