106
 energy: -152.429517755424 gnorm: 0.001034351213 xtb: 6.4.1 (1a32961)
N        -0.95348858493606   -2.18252137333054   -0.22538276048651
C        -2.24666833848856   -1.82665003564892   -0.27223121709177
C        -3.15716379645165   -2.52744427605719   -1.07105321837892
C        -2.72694456779919   -3.60863099342369   -1.81111665131719
C        -1.38666008988190   -3.97230900987933   -1.74084658471374
C        -0.54579364105622   -3.22464659377382   -0.93934674908384
H         0.50438626852659   -3.46353865293216   -0.85222367276191
H        -1.00808471870929   -4.81491238509371   -2.29623945057407
H        -4.19095470097246   -2.22806252657963   -1.12028678868295
C        -2.63843248845333   -0.68150517288177    0.54755967661234
N        -1.64967126249061   -0.03399190714338    1.18984233884345
C        -1.95442416212840    1.01497764402829    1.94658773311148
C        -3.24556486910823    1.47344901323140    2.12594340653275
C        -4.28086764754404    0.80735952037272    1.48035410492278
C        -3.97041896800083   -0.27396067642756    0.68203540504917
H        -4.76109774596267   -0.80409083394913    0.17837334454070
H        -3.43724233714494    2.32355678276623    2.76056109503439
H        -1.11493665057203    1.50098466144336    2.41950821345068
Ir        0.42149999999993   -0.81650000000004    0.91330000000004
H         0.87260000000000   -2.23030000000005    1.54049999999996
B         0.26668819701403    0.46141846199792   -0.72235923781585
O        -0.28781392889371   -0.00057979461681   -1.90846403937340
C        -0.73956432919063    1.10263425346047   -2.70048139297693
C        -0.45661516918725    0.82969774244928   -4.17619920786907
H         0.58694307648185    0.57713666337878   -4.33313519795991
H        -0.71489942352032    1.70048522521166   -4.77317768815999
H        -1.06255144773211   -0.01202153634593   -4.50335022752023
C        -2.25859991333818    1.20877497852268   -2.49632223526214
H        -2.68455712449366    1.99592547190040   -3.11129636780613
H        -2.71313491216136    0.25839537330318   -2.77017435911322
H        -2.48497152616530    1.39994460140061   -1.44945020761271
C         0.03936186234477    2.31203540176114   -2.08313490919436
O         0.38281056297194    1.83047147135820   -0.77741803660595
C         1.35146754681441    2.60705364365320   -2.82020363920529
H         1.95957474586049    1.70685920883239   -2.85546772479080
H         1.16279847748840    2.97298899931878   -3.82532568341195
H         1.90389611379252    3.36259680295764   -2.26657072626195
C        -0.76748957349572    3.60374854675312   -1.95766385652607
H        -1.61017995887829    3.47731711615273   -1.28507465224211
H        -0.12755820186539    4.38348710464113   -1.55175182237231
H        -1.12564317025061    3.91762096742986   -2.93477220520221
B         1.51650563854651    0.73891814369128    1.79676860849628
O         2.87565285478176    0.91729348854638    1.80540163310479
C         3.18115864960053    2.28986756323622    2.07154954651342
C         4.46120372253207    2.38929324098660    2.89666417622386
H         4.39694104231790    1.77984387488626    3.79166152890203
H         5.28853957590370    2.01992190707273    2.29677026117813
H         4.65475963736007    3.42403155905491    3.16708288867920
C         3.40064654052283    2.95098912088463    0.70522619157440
H         3.66692601458425    3.99948625814133    0.80344369294576
H         4.20102616216014    2.41883754946989    0.19856519436435
H         2.49991627165476    2.83422811303032    0.10916031093143
C         1.88274957047835    2.79794453240875    2.78329027023867
O         0.90345332931552    1.83493372438776    2.36781993685590
C         1.41935951583955    4.19058238842671    2.35905022796549
H         1.14368154869364    4.19206072966307    1.30987834152539
H         0.54535916582323    4.47017883275733    2.94234170595597
H         2.20658910242739    4.91837343113071    2.53505886924410
C         1.97665110748560    2.73411324841920    4.31140241908862
H         2.28530755893211    1.73844643550524    4.61824589452088
H         2.68065727313312    3.47068675308710    4.68694109838531
H         0.99506857965188    2.93409040069109    4.73530203836363
B         2.27820000000086   -1.33090000000092    0.17410000000055
O         2.57183870607207   -2.67052750589927   -0.05189390553634
C         3.72133728863669   -2.82096667771004   -0.89346435037316
C         4.84512249244978   -3.41841311843485   -0.04025483232245
H         5.06044324629547   -2.76647425716408    0.79975613102782
H         4.51112915162588   -4.37585817417442    0.35251181314413
H         5.74355945186123   -3.57193907051918   -0.62979670688458
C         3.38039056214814   -3.80910936688375   -2.01224914381134
H         3.16375119521554   -4.77724448120581   -1.56719190858023
H         4.22157411152134   -3.91707217648112   -2.69085710073026
H         2.50540709048076   -3.48525270394716   -2.56624916937568
C         4.00046653060466   -1.34960695584929   -1.37164762187670
O         3.17842235289897   -0.55560281036738   -0.50766785025967
C         5.45475857006598   -0.89667639905588   -1.24461474355470
H         6.10226959488025   -1.52703405370935   -1.84763246348713
H         5.53325274006854    0.12851990496062   -1.59661399648773
H         5.77595836940135   -0.92045141554747   -0.20923992158131
C         3.51674235977231   -1.07702352955721   -2.80352069306830
H         2.44844830334257   -1.26741996181890   -2.87412112418538
H         3.68548094628349   -0.02633895873603   -3.02745774689566
H         4.05497647525346   -1.68095166739962   -3.52764102160340
H        -3.41925133370834   -4.15809579665094   -2.43109498266888
H        -5.30558535045238    1.12487468165492    1.60027980868945
C         0.23590000000109   -1.68139999999898    2.96030000000126
S        -1.37752121716192   -2.24405752428985    3.31181216284609
C         0.97468291015937   -1.63265964988268    4.12271130865363
C        -1.06627705131084   -2.32081659413478    5.00648061446809
C         0.20834475364897   -1.96272387364969    5.28168847419480
C         2.39923054432990   -1.31099476431586    4.25339740079246
H        -1.84299462861365   -2.62559423468659    5.67924417867396
H         0.61964211028925   -1.96671444606823    6.27640788412022
C         3.34732779828812   -1.75961555837673    3.33541330111672
C         2.85340251744874   -0.60119398938312    5.36416610653886
C         4.68798555059705   -1.49605850869928    3.52512481315805
H         3.02454113012500   -2.32158104766455    2.47554875073028
C         4.19976348892515   -0.33779414265930    5.54561930283373
H         2.14463602737839   -0.23852250307521    6.09610072937462
C         5.14134216950480   -0.78070954438878    4.62802394147699
H         5.41108143796686   -1.85568939334947    2.80689537919787
H         4.51861950588982    0.22364949395195    6.41384938109682
C         6.60533186265127   -0.50734253767959    4.80564532768798
H         6.99462900020262    0.03192734174898    3.94338601666597
H         7.15733223983968   -1.44284820692049    4.88986802696542
H         6.78673173064667    0.08544528116890    5.69854630670161
