9
 energy: -13.825417289512 gnorm: 0.000329731231 xtb: 6.4.1 (1a32961)
C         0.11693367290261    1.22977113517416   -0.00490502521354
S        -1.08629603965541   -0.00088139938287   -0.01035974594987
C         0.12476888966382   -1.22385505296522   -0.00502924899412
C         1.37599080891914   -0.70067605936224    0.00100620360340
C         1.37147556259638    0.71461720991540    0.00100869761157
H        -0.18444966525852    2.25817267799058   -0.00640060871743
H        -0.17006786365138   -2.25417088129597   -0.00671598348688
H         2.27169960342985   -1.29549872973879    0.00572220311628
H         2.26334503105352    1.31520109966495    0.00578350803060
