110
 energy: -159.064955041464 gnorm: 0.000324483839 xtb: 6.4.1 (1a32961)
N        -0.88829195690383   -1.97780208886081   -0.43344825379206
C        -2.14881447949269   -1.52328122768511   -0.57762216696363
C        -3.02238321789592   -2.10796985925246   -1.50466738755918
C        -2.59025453751528   -3.15044811156396   -2.29352477675544
C        -1.28033670784998   -3.60151075602102   -2.14174072503007
C        -0.48184955712602   -2.98522737947882   -1.20226007335563
H         0.53774349120674   -3.30677785798367   -1.04352696655389
H        -0.89849674117455   -4.41414996940149   -2.73803672085268
H        -4.03315760938314   -1.74910837748254   -1.60795957510261
C        -2.53050512650987   -0.40357590368682    0.27078695371806
N        -1.59250129753096    0.04724324688477    1.13283493599630
C        -1.89992587956936    1.06704595028330    1.93283183828912
C        -3.12638726731017    1.69778864233061    1.92799325425421
C        -4.09974554076721    1.25392814988946    1.03526498950510
C        -3.79344672278427    0.19944899164104    0.20372074152700
H        -4.53230539070671   -0.15506929026904   -0.49565864072335
H        -3.32177575260992    2.51339650811450    2.60531474546221
H        -1.11080141579960    1.38213538172024    2.59814394346081
Ir        0.42149999999994   -0.81649999999993    0.91330000000001
H         0.87259999999997   -2.23029999999994    1.54050000000001
B         0.41367667108049    0.69222636107623   -0.53358912246446
O        -0.28781651751587    0.51703651707367   -1.71449055070429
C        -0.37774513013032    1.76008187374974   -2.41870140410557
C        -0.21510917266496    1.51965197862780   -3.91738207685319
H         0.67877187268556    0.93895116289436   -4.11952743174663
H        -0.16157219518207    2.46927240113397   -4.44377839361937
H        -1.07324122849728    0.96207409002234   -4.28516495533301
C        -1.77803438204033    2.32960306505749   -2.14710990288520
H        -1.94041357411666    3.25328476404260   -2.69487325131572
H        -2.51888014403680    1.59651205817685   -2.46071050753380
H        -1.90992070650908    2.50628446465731   -1.08138431040347
C         0.75678772533855    2.60819330760513   -1.75709252223298
O         0.91125417311405    1.97451823426779   -0.48043016272350
C         2.09896408328020    2.46358030611579   -2.48475738622147
H         2.35597184341166    1.40915252742153   -2.55283354848728
H         2.06712173328460    2.91432651350261   -3.47253938189393
H         2.86866260390193    2.95511225701867   -1.89418937819092
C         0.43255832415797    4.08907814019847   -1.57148961500536
H        -0.40927358313069    4.22694862725393   -0.90003371015935
H         1.29564606877216    4.59129398824788   -1.14094989769554
H         0.20721510806193    4.54343218777529   -2.53298607703051
B         1.55541096048218    0.60081347838116    1.94732615025305
O         2.92324304650238    0.73077962487515    1.98503569565845
C         3.28343995505341    1.96717288702827    2.61799758055029
C         4.52094486666000    1.76638892019317    3.49012642916525
H         4.37236414359493    0.95994195906150    4.19979580780172
H         5.36690453373369    1.51097883939178    2.85707346546254
H         4.74935803013416    2.68232935094053    4.02846260548148
C         3.60594166930560    2.95539481097869    1.49025383847542
H         3.87022258124423    3.93398805174829    1.87983560555319
H         4.44368058663580    2.56524503121561    0.91641678995743
H         2.74833906946602    3.02482646841593    0.82587165710325
C         1.98076171178935    2.34371488976190    3.40108679357807
O         0.97463163569166    1.58098732934781    2.72216521845874
C         1.60946823065496    3.82476488140905    3.35569606718629
H         1.40552257897485    4.13756153721653    2.33715982574805
H         0.71233691427152    3.98468044845789    3.94868490674302
H         2.41449150137162    4.42566056193416    3.77007871464333
C         1.99616442230424    1.87027688235290    4.86023753643599
H         2.21740451578309    0.80752929837242    4.90698986811283
H         2.72196524900253    2.42676917056463    5.44525056894091
H         1.00706322260362    2.02276670550009    5.28602201549931
B         2.27820000000098   -1.33090000000053    0.17410000000119
O         3.15493592033961   -2.23940858483284    0.72757329867465
C         4.41436633637342   -2.19686040757231    0.04498631263577
C         5.36427576140222   -1.38349691349858    0.93072631315115
H         4.91274007111370   -0.41688618667220    1.13515715005476
H         5.48229627631771   -1.90472006244231    1.87759091017181
H         6.33925485059043   -1.26462006647072    0.46832680356498
C         4.95865721555762   -3.61674524310756   -0.11107701710669
H         5.15785185899822   -4.02515240680296    0.87613326448411
H         5.88402424944740   -3.60141978264635   -0.68018090633169
H         4.24081617364516   -4.26432486468196   -0.60322128791889
C         4.05640627850769   -1.47130594205288   -1.29996204660683
O         2.80408500880513   -0.83761899157806   -0.99875910036043
C         5.06078315939672   -0.40861247717295   -1.74293579791937
H         6.04453244845343   -0.85001776040025   -1.87685227632652
H         4.73501275693665    0.01595622206931   -2.68929274940255
H         5.11194021127481    0.39174503279423   -1.01288217042457
C         3.80630883550610   -2.44025898372375   -2.46375969035128
H         3.07010976223013   -3.18731300367992   -2.18026883991933
H         3.40599355855151   -1.87798333183787   -3.30400834609987
H         4.72651303468139   -2.92822059013540   -2.77026785675381
H        -3.25267305279762   -3.60666946685211   -3.01340702014216
H        -5.07105849788233    1.72334203045306    0.99453537924425
C         0.23589999999950   -1.68140000000260    2.96029999999975
C        -1.04560668011408   -1.92643044905460    3.44505461478380
C         1.29570049223296   -1.72758903615674    3.86143387401743
C        -1.25631874260905   -2.09599046353952    4.80616286249342
H        -1.89437424090525   -1.98510338256274    2.77874379272589
C         1.10685836933307   -1.94148358188458    5.22739477981139
H         2.29774572154864   -1.62418507386442    3.47716354465280
C        -0.20070725727759   -2.09849941470003    5.69705381943166
H        -2.26319969034906   -2.24528592966457    5.17268158684786
C         2.26365057210478   -2.04590151404397    6.10185221041445
H        -0.40050111536860   -2.22771229702775    6.75071027207173
N         2.18685322957774   -2.56715455751017    7.37323624274230
C         3.57401344343539   -1.71410581527955    5.84515441047652
C         3.42791234087927   -2.59571692855223    7.93362504674870
H         1.35328137910866   -2.93631959823717    7.79634109457312
C         4.33709024966727   -2.05014759905037    6.99094175346983
H         3.95526209533597   -1.28323148192858    4.94089014434266
C         3.85127144897574   -3.05178336044266    9.17583707973415
C         5.69233790052898   -1.96343709989209    7.31707421266228
C         5.19592408310267   -2.95765572693456    9.46726548489054
H         3.15283464750580   -3.46871513500635    9.88675958177319
C         6.10368183442969   -2.41924224125512    8.54882289305718
H         6.39849070739487   -1.55142079428011    6.61117801392658
H         5.56053234559100   -3.30748322129550   10.42240289051724
H         7.14900751084581   -2.36577942265466    8.81858685561400
