119
 energy: -172.752879039701 gnorm: 0.000232486565 xtb: 6.4.1 (1a32961)
N        -0.90160371691652   -1.98041317219542   -0.43790575871989
C        -2.14859456106379   -1.49275321387059   -0.58232510591078
C        -2.97691620610891   -1.92707098778936   -1.62432445611067
C        -2.52114977277215   -2.87653888068491   -2.51219921778539
C        -1.23513777100783   -3.38360571579141   -2.34198605686876
C        -0.47406652065489   -2.90035330244429   -1.29864389124559
H         0.53087780759675   -3.26071883410456   -1.13065706723033
H        -0.83899935775780   -4.13154983330829   -3.00946715406841
H        -3.96397783634548   -1.51273229817978   -1.74884714594871
C        -2.56282988547075   -0.48360989533005    0.38458675197089
N        -1.60756935173378   -0.01834967197715    1.21601755369989
C        -1.93709744394357    0.90809748143081    2.11196597676553
C        -3.21134229494422    1.42110592504506    2.24470975709139
C        -4.21077636366170    0.94500991546712    1.39998276630758
C        -3.87871961835651   -0.01067878463928    0.46430776704293
H        -4.64009915812401   -0.39999114942360   -0.19132454722838
H        -3.42272140091769    2.16617251004390    2.99456659293679
H        -1.12791912975235    1.24877420254875    2.73903032251082
Ir        0.42150000000072   -0.81649999999947    0.91329999999991
H         0.87260000000020   -2.23029999999936    1.54050000000003
B         0.38552624864500    0.65474676411418   -0.57449665523719
O        -0.37571394928221    0.47091639860195   -1.71826550901864
C        -0.48027894979077    1.70239200387793   -2.43980151700341
C        -0.40855460220663    1.43190773576605   -3.94050877233429
H         0.46582196998389    0.83796138501516   -4.18472640404859
H        -0.37719728842170    2.37076528621233   -4.48753015374774
H        -1.29259402419371    0.87645143233950   -4.24480664367448
C        -1.85174430266793    2.30405654103995   -2.09926083619711
H        -2.02479815597223    3.22565384774226   -2.64706806626905
H        -2.62330446122431    1.58347009607476   -2.36392462117540
H        -1.92014778538242    2.49257167712649   -1.02969000862853
C         0.70613676588207    2.53800469980122   -1.85826302318184
O         0.91774670115290    1.92396458546279   -0.58055702619215
C         2.00208796902206    2.35242252923319   -2.65697462802768
H         2.23413763532706    1.29186713684663   -2.71840538741262
H         1.92238829406889    2.78529793854935   -3.64999020687768
H         2.81358400811368    2.83864973094497   -2.12072053307904
C         0.42260954155864    4.02845482974868   -1.68073579236045
H        -0.36990222132317    4.19363640714986   -0.95730572872805
H         1.32131772101001    4.52141787317271   -1.31739094739137
H         0.14257950869377    4.47072279228017   -2.63344157987347
B         1.54902538354023    0.65995342187739    1.86290947456037
O         2.91486985428316    0.80085214056735    1.89403666371512
C         3.27092589226166    2.07423402632862    2.45068123225579
C         4.48892049092406    1.91628993448323    3.36006491076893
H         4.32199270201624    1.14797577729804    4.10740352800341
H         5.34522372886781    1.62167368194828    2.75886578558736
H         4.71358890594416    2.85951489633220    3.85061886313808
C         3.62939163712448    2.98159085946490    1.26757984040980
H         3.88686737035720    3.98418383199007    1.59560965572794
H         4.48097773049344    2.55077387118247    0.74572709903723
H         2.79079854781653    3.00597536085226    0.57686112799148
C         1.95428321525794    2.51378889371780    3.18052233997940
O         0.95871879292635    1.68379875832427    2.56873516674905
C         1.57138682990107    3.98005788977941    2.98491570746679
H         1.38104639315684    4.18645329031431    1.93703790457140
H         0.66212102259341    4.18741057480984    3.54385744658160
H         2.36289754194792    4.62832949105833    3.35074679467020
C         1.95601185412622    2.18738869299079    4.67978339608843
H         2.16465092715763    1.13193713603365    4.83106180803390
H         2.68478100623984    2.79207683667218    5.21072351846268
H         0.96701776727418    2.39206187398851    5.08345909907418
B         2.27820000000615   -1.33090000000022    0.17409999999936
O         3.16242298983678   -2.21581047153191    0.75304195046072
C         4.42428926479841   -2.18090570794560    0.07537862096293
C         5.37054365231659   -1.35739339203198    0.95569487117561
H         4.91693088976978   -0.38971141576319    1.14866433484666
H         5.48511385092006   -1.86840938463133    1.90828802122563
H         6.34682296060717   -1.24224460310207    0.49520369513243
C         4.96918454508515   -3.60334306468095   -0.05819332516230
H         5.15822577832658   -3.99910282243564    0.93608906923895
H         5.89994553254299   -3.59646800678511   -0.61848408109372
H         4.25507471877987   -4.25654319543390   -0.54827310572104
C         4.07302032573626   -1.47430516879577   -1.28260240719104
O         2.80367914461419   -0.86258935891445   -1.00913485985829
C         5.06163843908655   -0.39276268696554   -1.71618832265405
H         6.05622666275529   -0.81335498690818   -1.83582504441032
H         4.73878543393167    0.02237558196498   -2.66757780640261
H         5.08496858878606    0.41011149276184   -0.98761991802753
C         3.86438521424726   -2.45608545659268   -2.44373053383417
H         3.13169232347887   -3.21075376667699   -2.17203145474311
H         3.47817555128843   -1.90617179811302   -3.29852079789760
H         4.79830861979006   -2.93407918823554   -2.72310787694663
H        -3.14700923795359   -3.21638918987118   -3.32338578722251
H        -5.22309563178640    1.31203268851668    1.47652087082623
C         0.23589999999362   -1.68139999999116    2.96029999999863
C        -1.01189019852737   -2.14177480939766    3.34345283134304
C         1.24114471808150   -1.52468794557616    3.93401835504371
C        -1.26799094334436   -2.37335036528663    4.69830632945279
H        -1.78958096718853   -2.34971679426571    2.62269716191601
C         1.01745852679660   -1.74331373047612    5.27780851281096
H         2.22741113900015   -1.24169965384178    3.60081691596231
C        -0.25033963608084   -2.17099149324210    5.65009364082929
C        -2.37662420027452   -2.86165987397454    5.44823664037215
H         1.79549720882217   -1.62306800076392    6.01561197443495
O        -0.68472906605380   -2.50721643745527    6.88762178235180
C        -1.98246722475657   -2.93431937743894    6.75576605808585
H        -3.34335645665494   -3.13609817682852    5.07775575698066
B        -2.73860221422111   -3.48468195317353    7.99307955280210
O        -2.17377422737713   -3.67914330644054    9.21745675860208
O        -4.04611890730532   -3.87539107251515    7.94754510854736
C        -3.09770646062726   -4.40912832698922   10.03795619755144
C        -4.46173138551693   -4.23294604304811    9.27589374873830
C        -2.61038228227927   -5.86341053026019   10.06385465282799
C        -3.07073572191110   -3.84521838645924   11.45659750560413
C        -5.33205494549776   -5.48604141006774    9.21183463251356
C        -5.29848019471056   -3.06397769944840    9.81021543152749
H        -1.59234362551823   -5.87914560511068   10.44601209540540
H        -2.59642449416841   -6.27396365770956    9.05708425029516
H        -3.24014265213304   -6.47340049434455   10.70328166965489
H        -2.09181650707809   -4.03365087642107   11.88972846659093
H        -3.82656028296070   -4.33313574070622   12.06480060938160
H        -3.23761656485057   -2.77311144621188   11.45663464084447
H        -5.58234295590790   -5.81621215557438   10.21559633350327
H        -4.82906028302476   -6.28634387334269    8.67925374032353
H        -6.24880182975084   -5.24959609319023    8.67788972763821
H        -5.68296656365225   -3.28345320127547   10.80091111268333
H        -6.13256314643634   -2.89815825157446    9.13252780468297
H        -4.70218573577543   -2.15533511271621    9.83793981303757
