12
 energy: -17.460123755929 gnorm: 0.000103273494 xtb: 6.4.1 (1a32961)
N        -1.27436089850898   -0.64066283002262    0.00045623325114
C        -1.38633318579041    0.70165891372437    0.00030649795282
C        -0.10523391077293    1.20017762960964   -0.00105539108195
C         0.72980190619708    0.06558511027932   -0.00127086459457
C         2.21808604343100    0.03147042122023   -0.00231609608665
N        -0.00147815825455   -1.03897556551549   -0.00040513840722
H        -2.00872972920657   -1.33053336285111    0.00133315527210
H        -2.33755045385950    1.19406948044623    0.00112273777480
H         0.19858560451823    2.22726210252468   -0.00160040083509
H         2.61433116370252    1.04352150379735    0.00130006585253
H         2.58253171946787   -0.49256966376833   -0.88424209956883
H         2.58347989907626   -0.49948373944427    0.87502130047092
