105
 energy: -153.016480692015 gnorm: 0.000700851320 xtb: 6.4.1 (1a32961)
N        -0.96509999999998   -2.11529999999995   -0.24089999999988
C        -2.24700000000002   -1.69840000000003   -0.36219999999998
C        -3.14039999999999   -2.36819999999999   -1.21199999999999
C        -2.70220000000001   -3.47560000000000   -1.93050000000004
C        -1.37779999999998   -3.89880000000000   -1.78760000000014
C        -0.54290000000000   -3.18669999999993   -0.93509999999994
H         0.49809999999998   -3.45629999999999   -0.78939999999999
H        -0.99570000000003   -4.76030000000002   -2.32769999999997
H        -4.16499999999999   -2.02889999999998   -1.31830000000000
C        -2.62130000000000   -0.50950000000003    0.44100000000004
N        -1.62600000000001    0.07330000000000    1.16019999999998
C        -1.89679999999999    1.15239999999998    1.91690000000001
C        -3.17229999999997    1.70329999999998    1.99650000000004
C        -4.20510000000001    1.11740000000002    1.26269999999999
C        -3.92610000000001    0.00250000000001    0.47820000000000
H        -4.71959999999999   -0.46420000000000   -0.09520000000000
H        -3.34630000000000    2.57510000000004    2.62069999999994
H        -1.04450000000002    1.57420000000002    2.43689999999999
Ir        0.42150000000000   -0.81650000000000    0.91329999999999
H         0.87260000000000   -2.23030000000001    1.54049999999999
B         0.50670000000003    0.41560000000006   -0.81539999999998
O         0.19499999999999   -0.04700000000005   -2.09150000000004
C         0.00650000000001    1.10039999999988   -2.95430000000003
C         0.49020000000002    0.74739999999979   -4.35780000000011
H         1.51610000000000    0.37379999999999   -4.33700000000000
H         0.44730000000000    1.62239999999992   -5.01670000000005
H        -0.14739999999996   -0.03390000000002   -4.78429999999998
C        -1.50119999999999    1.39559999999980   -2.96669999999998
H        -1.75370000000001    2.21459999999994   -3.64850000000003
H        -2.03200000000005    0.49449999999998   -3.28930000000000
H        -1.85170000000000    1.65209999999998   -1.96220000000005
C         0.84229999999998    2.20669999999992   -2.22039999999993
O         0.75200000000001    1.78259999999992   -0.83689999999994
C         2.32930000000001    2.18619999999999   -2.59900000000002
H         2.74129999999992    1.18499999999991   -2.45750000000001
H         2.48870000000000    2.51300000000000   -3.63180000000004
H         2.87200000000004    2.86270000000002   -1.93199999999996
C         0.28440000000005    3.62290000000016   -2.33659999999998
H        -0.72649999999998    3.69040000000003   -1.92910000000001
H         0.92129999999992    4.31480000000000   -1.77610000000008
H         0.26430000000000    3.94810000000000   -3.38320000000010
B         1.56299999999999    0.60959999999998    1.84839999999999
O         2.92780000000001    0.55230000000001    2.15020000000000
C         3.36329999999998    1.88660000000004    2.50259999999988
C         4.53139999999996    1.78590000000020    3.47739999999994
H         4.27909999999998    1.16089999999997    4.33689999999998
H         5.39389999999998    1.33790000000000    2.97340000000003
H         4.82390000000000    2.77870000000002    3.83820000000001
C         3.79699999999997    2.56850000000002    1.19669999999989
H         4.20020000000000    3.57090000000001    1.37680000000002
H         4.56739999999999    1.95560000000000    0.72110000000005
H         2.95240000000002    2.63260000000000    0.50539999999999
C         2.05039999999999    2.50089999999996    3.09319999999990
O         1.03750000000002    1.81620000000009    2.31909999999995
C         1.89100000000001    4.00450000000009    2.88650000000020
H         1.87290000000001    4.25439999999999    1.82410000000013
H         0.94939999999997    4.34259999999999    3.33169999999998
H         2.71080000000000    4.55149999999999    3.36630000000000
C         1.82469999999999    2.13199999999993    4.56519999999986
H         1.92610000000000    1.05330000000006    4.71320000000001
H         2.52609999999999    2.65279999999993    5.22540000000002
H         0.80630000000003    2.41579999999999    4.84900000000002
B         2.27820000000001   -1.33089999999997    0.17410000000000
O         2.89460000000003   -2.57740000000001    0.38449999999999
C         4.26930000000001   -2.48199999999998   -0.07210000000004
C         5.10899999999994   -2.05380000000003    1.14009999999998
H         4.76349999999998   -1.08740000000001    1.51750000000000
H         4.98050000000000   -2.79469999999997    1.93590000000005
H         6.17419999999999   -1.99290000000000    0.89300000000000
C         4.71949999999998   -3.84659999999995   -0.58470000000002
H         4.75280000000001   -4.56129999999993    0.24419999999993
H         5.72330000000004   -3.78369999999999   -1.02010000000002
H         4.03500000000003   -4.23599999999997   -1.34170000000003
C         4.16439999999997   -1.36220000000002   -1.16299999999992
O         3.08519999999999   -0.55030000000001   -0.65400000000002
C         5.40719999999999   -0.48870000000004   -1.31550000000000
H         6.27320000000000   -1.09010000000000   -1.61530000000000
H         5.23299999999999    0.26930000000003   -2.08590000000001
H         5.64269999999999    0.02650000000002   -0.38240000000000
C         3.71800000000003   -1.89829999999994   -2.53110000000001
H         2.82529999999999   -2.52160000000000   -2.42740000000000
H         3.46090000000002   -1.05249999999998   -3.17549999999998
H         4.50570000000002   -2.48290000000005   -3.01790000000000
H        -3.38500000000002   -4.00129999999994   -2.59310000000002
H        -5.21400000000001    1.52079999999999    1.29960000000000
C         0.23590000000003   -1.68140000000001    2.96030000000005
C        -1.02182119621369   -2.01809796076857    3.45380788904693
C         1.31313755475659   -1.84883825514750    3.82832982312766
C        -1.18676121921202   -2.41557403803366    4.76823924066238
H        -1.89995363193196   -1.97231477646906    2.82238825154407
C         1.19346949188913   -2.33503224936863    5.13982145279967
H         2.30340300041220   -1.67073934658617    3.43276753429918
C        -0.09686804573059   -2.60209479437343    5.62776364243890
H        -2.17051660357317   -2.63961820387151    5.16225732715835
C         2.46722746340507   -2.72928195294392    5.79995364228003
O        -0.45494118861751   -2.98737407367208    6.88654360542402
O         2.65535453621191   -3.86346589929899    6.21303240920185
C         3.54957559113792   -1.67965194730953    5.85256753518116
C         0.49648486000430   -3.13153904530602    7.92045050582943
H         3.82407549390613   -1.38431514897471    4.84165352549032
H         4.42578124176446   -2.08134575834459    6.36555400091504
H         3.18183296822836   -0.79608418808007    6.37311190027528
H        -0.08906427037907   -3.21630893638589    8.83827329625902
H         1.15539092041306   -2.26052779009236    7.97951098856192
H         1.10601798603704   -4.02904096795885    7.78587090015222
