110
 energy: -159.063324324201 gnorm: 0.000246437781 xtb: 6.4.1 (1a32961)
N        -0.88025923443437   -2.03091195377155   -0.41387038440061
C        -2.14276515278960   -1.58331552282436   -0.55485880361209
C        -2.97516925607133   -2.08250556932309   -1.56482331998890
C        -2.50559254884677   -3.04995058913231   -2.42513437280988
C        -1.20137206570166   -3.51128587640802   -2.26034736243615
C        -0.43932630136000   -2.96859304141248   -1.24760782936325
H         0.57854238018465   -3.29321953945988   -1.08341843810062
H        -0.79351005330290   -4.27033484495741   -2.90809157862690
H        -3.97808405205655   -1.70638662589570   -1.68490493962256
C        -2.56890458084513   -0.55284698192651    0.38259776966504
N        -1.62027600138806   -0.05572843916024    1.20478406679021
C        -1.96454575219026    0.88615388181211    2.07960172621942
C        -3.24462304813782    1.38699349021448    2.19707826990704
C        -4.23560954180019    0.88293165219964    1.35784168250869
C        -3.88968411535008   -0.09017036736165    0.44601730467496
H        -4.64396312303661   -0.50001420304605   -0.20544911740840
H        -3.46768983774599    2.14487520741096    2.93060826651160
H        -1.16153013765205    1.24892608801620    2.70218489045893
Ir        0.42149999999992   -0.81650000000010    0.91329999999985
H         0.87260000000008   -2.23029999999999    1.54049999999992
B         0.34205746396693    0.63602300745077   -0.59025234760971
O        -0.37226969529923    0.37098882978021   -1.74875144609226
C        -0.54320474854455    1.57164927208438   -2.50621291519446
C        -0.40612515675998    1.26868239933293   -3.99625452791773
H         0.51179050409900    0.72601098287306   -4.19649180148577
H        -0.41657515148072    2.19316114501143   -4.56800840739137
H        -1.24254249084937    0.64958963804181   -4.31237961290051
C        -1.96469552225222    2.08042350219495   -2.22271351282370
H        -2.18680556137605    2.97314415930041   -2.79991351496383
H        -2.67352142550706    1.29899127023115   -2.49059679421592
H        -2.08061951763434    2.28977024691573   -1.16100542005528
C         0.56179529058704    2.50572934144724   -1.91471244394375
O         0.77913695613023    1.94258621859742   -0.61494359767068
C         1.89088670773745    2.39380516721428   -2.67199398636308
H         2.19896855394337    1.35115803848228   -2.69914914680065
H         1.80993556616536    2.79473695125983   -3.67829325077413
H         2.65014166311204    2.95039608059769   -2.12736437934763
C         0.16574924573109    3.97566441876793   -1.78966152891584
H        -0.66378329910971    4.10167010500662   -1.10065693386021
H         1.01236066072618    4.54188064674134   -1.40865821824395
H        -0.10906021112118    4.37108869400178   -2.76438512222524
B         1.52430326816915    0.68968789702344    1.84306329565885
O         2.88628886830482    0.88356163196770    1.83336901983595
C         3.20835942284572    2.16667277826514    2.38758664033079
C         4.46901906795096    2.05948070831882    3.24459736735508
H         4.37331725023720    1.27102263735154    3.98348403388700
H         5.31517324112009    1.82206161629501    2.60495873933273
H         4.66194597432573    3.00558270419509    3.74318801326539
C         3.47362932224285    3.10117667086080    1.20103032686981
H         3.70801824024370    4.10926742518449    1.52998134312703
H         4.31428877793443    2.70985313076627    0.63226412910027
H         2.60193886840323    3.10142678743428    0.55183692468130
C         1.90573869339731    2.53918831469380    3.17516829864998
O         0.92047322259920    1.68832644958379    2.57701636766592
C         1.46589979209876    3.99595148301637    3.03738758125867
H         1.22762419726232    4.22671997235038    2.00453746751422
H         0.57307438659704    4.15624678017627    3.63691976090813
H         2.24938734842950    4.66072682885749    3.39126713350217
C         1.97553781411508    2.17129532795669    4.66324369936302
H         2.23357937025646    1.12182871463810    4.77269872760338
H         2.69732617285163    2.79086499905852    5.18659203723590
H         0.99337547665491    2.32113825506362    5.10550425139546
B         2.27819999999878   -1.33090000000121    0.17410000000314
O         3.19165571984464   -2.18334497337620    0.75745890030092
C         4.44515991508004   -2.12437355317380    0.06660615995447
C         5.37611765987208   -1.25920843559233    0.92332815195919
H         4.89576214386275   -0.30242691040110    1.10654049253543
H         5.51709037310885   -1.75153231548273    1.88219203225797
H         6.34320900756694   -1.12207380819331    0.44959590909198
C         5.02967520579161   -3.53264773577885   -0.04840150328905
H         5.23605253983741   -3.90735405688097    0.95065451710292
H         5.95643851459815   -3.50762097966057   -0.61489101129906
H         4.33169757876632   -4.21358790326346   -0.52384402157165
C         4.06188654335035   -1.45097109819603   -1.29963745593759
O         2.77893438426143   -0.87132322573324   -1.02454040962944
C         5.01429928902046   -0.34755868685229   -1.75950112600129
H         6.02008303988847   -0.73965670564169   -1.88244267893091
H         4.67013696847040    0.04240049536787   -2.71422602716595
H         5.01988830324199    0.46751400010909   -1.04407798723033
C         3.87379234225292   -2.45697643221768   -2.44358907660503
H         3.16580699674025   -3.22869747181422   -2.15463334760423
H         3.46493261929829   -1.93237693725893   -3.30389987276753
H         4.81944753998647   -2.91159143266881   -2.72298140558308
H        -3.13492522323219   -3.43916993880092   -3.21120653553391
H        -5.25185176172685    1.24196897203728    1.42076236274161
C         0.23589999999821   -1.68140000000368    2.96030000000035
C        -1.00043783055323   -2.16644123073960    3.34172158393508
C         1.23833899544442   -1.49585540169494    3.93215735123302
C        -1.26146156634012   -2.39543911792694    4.69781192315801
H        -1.77019194804853   -2.39571420557986    2.61702774798313
C         1.01188523875653   -1.70845028512360    5.27471187607776
H         2.21936766305760   -1.19611229090805    3.59718987535805
C        -0.24605128163026   -2.16213702690330    5.65584513889653
C        -2.37951458367160   -2.89755869558683    5.41264109698421
H         1.79417287431450   -1.55997591559187    6.00543035246538
N        -0.73299718653011   -2.52414130238438    6.87661327815449
C        -2.02687215075952   -2.97030054941170    6.74074469423757
H        -3.31507163220706   -3.20090698190143    4.98503826639932
H        -0.24497847202268   -2.42426311617649    7.74979884873347
C        -2.79312091686577   -3.47306747656089    7.86740914560428
C        -2.16048672884764   -3.98123389217692    9.00466303631280
C        -4.18928411427325   -3.48466730493857    7.82522086775445
C        -2.89941081956134   -4.47908524356020   10.06119562160460
H        -1.08200825092740   -4.01426819816107    9.05445532538413
C        -4.92403678974387   -3.98442548109817    8.88270782502543
H        -4.69366605868783   -3.08851186148844    6.95719901185507
C        -4.28361651675526   -4.48232177557537   10.00677275957191
H        -2.39242961481321   -4.87248299060321   10.93059411231739
H        -6.00341207250837   -3.98488502422948    8.83292174514387
H        -4.85940035044406   -4.87252010163295   10.83290175730530
