94
 energy: -136.949689238110 gnorm: 0.000217467766 xtb: 6.4.0 (f63f532)
N        -0.88661175360145   -2.04200998785433   -0.35332234924019
C        -2.17553856761349   -1.66619353629396   -0.41731011151349
C        -3.08846709834011   -2.36668933396879   -1.21598869100010
C        -2.66439561896956   -3.44671744700788   -1.95945607046682
C        -1.32400460862669   -3.81575485264503   -1.89150766745908
C        -0.48614763835337   -3.08419987460359   -1.07549194499513
H         0.56086121706808   -3.33763902853266   -0.98606393189335
H        -0.94627831545161   -4.65346856080887   -2.45489253175853
H        -4.12414283185300   -2.07318511944234   -1.25249709581328
C        -2.55366325508546   -0.50277033101676    0.37802058043757
N        -1.59512344182436    0.03615858860543    1.15641264106933
C        -1.89806636970124    1.09613250928523    1.89957989199487
C        -3.14745851210641    1.68356286656466    1.91863936746534
C        -4.14312724141618    1.15017295697654    1.10714828447171
C        -3.83742273450366    0.05320626077401    0.33026896417793
H        -4.59315042431759   -0.36622324865102   -0.31236717933763
H        -3.33833431649199    2.53589943566759    2.55057621363892
H        -1.08825439041852    1.49036161799454    2.49431745680471
Ir        0.42149999999995   -0.81650000000005    0.91330000000014
H         0.87260000000000   -2.23030000000001    1.54050000000004
B         0.41611312632930    0.61514167918925   -0.60109061745072
O        -0.20920017268777    0.33117530456972   -1.79964713378031
C        -0.26019467346219    1.50613187105406   -2.61705626511412
C         0.01928723274394    1.13268318826167   -4.07067260054222
H         0.93342325255245    0.55343811069703   -4.14733296862970
H         0.10159128399986    2.02981227579073   -4.67879957304069
H        -0.80047459593723    0.52614857819322   -4.44798108672793
C        -1.68320575942037    2.07033940341766   -2.50043160337669
H        -1.81163824277705    2.94526207388695   -3.13066746724450
H        -2.38837547075000    1.30203901161804   -2.81080843557431
H        -1.89913393038854    2.32657429903395   -1.46502633156666
C         0.81374973903836    2.42944389024723   -1.95328260557899
O         0.89009454072078    1.90705264873802   -0.61878109443831
C         2.20513591361094    2.25164496242127   -2.57332189170627
H         2.48540934785145    1.20248866456839   -2.51982832163328
H         2.23171973534802    2.60517411523503   -3.59993609818731
H         2.92338551302643    2.81730217046615   -1.98447736619974
C         0.45635326592195    3.91382222580261   -1.91533542250341
H        -0.43430133348981    4.09039573206238   -1.32054761401562
H         1.27854547198061    4.46623570217230   -1.46685723220151
H         0.29698775721359    4.28294291021644   -2.92526010856624
B         1.56489003690767    0.62757438258225    1.90769918685861
O         2.93632822098051    0.74119784056288    1.94476088677508
C         3.31181938773098    2.01630942374034    2.48609463615877
C         4.55406908675565    1.86527188765400    3.36280887223313
H         4.41416518881861    1.09572657458793    4.11475781363973
H         5.39725259884782    1.57880324322237    2.73958121856679
H         4.78350519437101    2.80999097025906    3.84827612076665
C         3.63500298615357    2.91744871617113    1.28850385947940
H         3.91455500628028    3.91794469646579    1.60476245784911
H         4.46167975720210    2.47613201795282    0.73632431106973
H         2.77173915907589    2.94867174403522    0.62865206625504
C         2.01659904238797    2.46134890288572    3.24636144408311
O         1.00057051105560    1.65231045000925    2.63796390345503
C         1.64986742085598    3.93532289158078    3.08438930537409
H         1.43685499796087    4.16271580233941    2.04535319704696
H         0.75814313785538    4.14664785949870    3.66956221078319
H         2.46033424591895    4.56516036859264    3.44100777065349
C         2.04255673308608    2.10908169386711    4.73953152658099
H         2.26570758591627    1.05362658463582    4.87014380838927
H         2.77372096842381    2.71110476423101    5.27021605338707
H         1.05702264854914    2.29747330331777    5.15945249945984
B         2.27820000000022   -1.33089999999937    0.17409999999978
O         3.09508018056477   -2.29589698083960    0.73086121897940
C         4.38495583786346   -2.28289844279654    0.10563488282075
C         5.32869442234727   -1.55488491972642    1.06927144170141
H         4.91154690352538   -0.57850179557116    1.29880243455192
H         5.38071699726520   -2.12323275556079    1.99470547400138
H         6.32789786333164   -1.46041172092100    0.65591056706488
C         4.87007007288419   -3.71952816500955   -0.08923264229578
H         4.99714008186256   -4.18084535686315    0.88666202096488
H         5.82408749935604   -3.72513350628556   -0.60868636659572
H         4.14979940087476   -4.30872280059908   -0.64682812349819
C         4.12021599516269   -1.48400826437863   -1.21920703773060
O         2.87696626776516   -0.81636716789801   -0.95034801220042
C         5.18332369911118   -0.44114550828023   -1.56001191447719
H         6.15580937176964   -0.91369313423618   -1.66615326214948
H         4.92208139082003    0.04005983921433   -2.49899913162105
H         5.22535252307651    0.32084571656430   -0.78957887320555
C         3.89392777057664   -2.38724840804558   -2.43902643097101
H         3.11179249141266   -3.11231579609941   -2.23155519810527
H         3.56463513862205   -1.76975156115990   -3.27121086562840
H         4.80823133530880   -2.90124943871225   -2.71969981137164
H        -3.35819260947572   -3.99362990862632   -2.57949190928856
H        -5.13134685601793    1.58396580254003    1.08293861107528
C         0.23589999999977   -1.68139999999907    2.96029999999822
N        -1.02872650804575   -1.98299025489930    3.21246166036237
C         1.18064578142880   -1.58026382273269    3.99948526412477
N        -1.46654951795235   -2.09799263213113    4.44255623217165
C         0.72571798172946   -1.71162532958906    5.29081598231358
H         2.21947750784643   -1.41072402186870    3.76219011121837
C        -0.64278250227215   -1.95337487955284    5.45778907755733
H         1.38293572090503   -1.64449076715577    6.14604447911278
H        -1.09075040070837   -2.05628410007480    6.43662280463376
