94
 energy: -136.949681624158 gnorm: 0.000196862857 xtb: 6.4.0 (f63f532)
N        -0.88862474523221   -2.04031268364736   -0.35307847967413
C        -2.17800499445286   -1.66546103819660   -0.41391823528374
C        -3.09046584711645   -2.36153279058646   -1.21695343116773
C        -2.66591375761850   -3.43721139956573   -1.96646657001913
C        -1.32538991400286   -3.80603102756841   -1.90061268232844
C        -0.48764803785124   -3.07806185964057   -1.08126149070394
H         0.55968785728724   -3.33081143099654   -0.99401405075190
H        -0.94732266552745   -4.64043987243367   -2.46863263939206
H        -4.12603151907402   -2.06761649123960   -1.25297988320323
C        -2.55685014281025   -0.50749580083653    0.38919444700900
N        -1.59515522004200    0.03439650312532    1.16152829842153
C        -1.89783814617250    1.09031393393747    1.91048807430065
C        -3.15072715516557    1.66974283478606    1.94279725010128
C        -4.15055458166880    1.13193182938586    1.13944323875957
C        -3.84482842146881    0.03976707697424    0.35580805434997
H        -4.60422338916561   -0.38322210973007   -0.28009599065606
H        -3.34119705304704    2.51882964893107    2.57921895212009
H        -1.08510108128825    1.48772532217332    2.49906417012437
Ir        0.42150000000018   -0.81649999999995    0.91329999999992
H         0.87260000000003   -2.23030000000018    1.54050000000006
B         0.41721843376702    0.61324052356098   -0.60329460772328
O        -0.19815086545734    0.32536786972294   -1.80597426065445
C        -0.24545341886091    1.49778029637263   -2.62714988780745
C         0.05319599506776    1.12147488877191   -4.07632106927354
H         0.97175847246066    0.54779193559719   -4.14056717640416
H         0.13675744941896    2.01718885516498   -4.68636048133003
H        -0.75837119016527    0.50859998182273   -4.46096153910332
C        -1.67284736325374    2.05455315730841   -2.53009662059721
H        -1.79722163078196    2.92848065508668   -3.16253955605869
H        -2.36969377509786    1.28251914747384   -2.84987284165339
H        -1.90418749112803    2.31010104392815   -1.49791941461810
C         0.81616864955831    2.42895484397406   -1.95389157999648
O         0.88580881578886    1.90706197079437   -0.61887063040711
C         2.21399823703094    2.26225733945144   -2.56244758099553
H         2.50281143100107    1.21563444891855   -2.50504588985384
H         2.24582433905964    2.61436965716839   -3.58938679194594
H         2.92268971240830    2.83514829237027   -1.96903061931048
C         0.44726871579738    3.91065418294678   -1.91816868372424
H        -0.45082661269705    4.07994825561104   -1.33251600726219
H         1.26053831435429    4.46865250913730   -1.46040888505280
H         0.29580707291985    4.27983418271210   -2.92928095519121
B         1.56603576622406    0.62695298218600    1.90690767462166
O         2.93764919453877    0.73849076765054    1.94488100791393
C         3.31497380695037    2.01268581252724    2.48696520259238
C         4.55545960155956    1.85865249808588    3.36566993116042
H         4.41216705658618    1.08991367288119    4.11779955715803
H         5.39873761165226    1.56931679572581    2.74390064109922
H         4.78690424419486    2.80295940291703    3.85098128077533
C         3.64211100729128    2.91318447082753    1.28997294540626
H         3.92359228261029    3.91298646656270    1.60671752209796
H         4.46852367993347    2.46999435374003    0.73887708791352
H         2.77980483829368    2.94663099485884    0.62898380077050
C         2.01948887415439    2.46053552556799    3.24524042516151
O         1.00281109055760    1.65283862930969    2.63615851008870
C         1.65548002426353    3.93498269832324    3.08154320169681
H         1.44387647728686    4.16164208153690    2.04205450413312
H         0.76346080465603    4.14836950415491    3.66550888827094
H         2.46661250161753    4.56383526127987    3.43835821526623
C         2.04272416327269    2.10928209449067    4.73867588749279
H         2.26313299686895    1.05336795434507    4.87027857391226
H         2.77464581706263    2.70989075782913    5.26990465974031
H         1.05709408305292    2.30030251189882    5.15717684531923
B         2.27820000000092   -1.33090000000085    0.17409999999932
O         3.09588107412316   -2.29457753623850    0.73211975824520
C         4.38472359819759   -2.28336498859394    0.10467274088159
C         5.32984417200959   -1.55079496501781    1.06345629453008
H         4.91256385907782   -0.57367054665602    1.28951721233670
H         5.38386647862571   -2.11506090465333    1.99126776378492
H         6.32823523946619   -1.45758699654255    0.64781700124230
C         4.87051676830163   -3.72037153436650   -0.08552556821151
H         5.00083914497984   -4.17753124296283    0.89189041091564
H         5.82304173736335   -3.72721748638781   -0.60773217541950
H         4.14919209469417   -4.31252517685578   -0.63858821499914
C         4.11701845214940   -1.48985586486869   -1.22264842778262
O         2.87570382884922   -0.81912246079675   -0.95250347999455
C         5.18091993648317   -0.45062320294292   -1.57185759928283
H         6.15221415275481   -0.92554925582413   -1.67842276442269
H         4.91797252952880    0.02621088454428   -2.51260783136800
H         5.22674536904580    0.31523829041373   -0.80548927514146
C         3.88495704842692   -2.39843265032903   -2.43742218070489
H         3.10282643146777   -3.12163961809497   -2.22344958024522
H         3.55312313058875   -1.78451041834194   -3.27124295454411
H         4.79756331122293   -2.91487232576681   -2.71912538964690
H        -3.35943643854982   -3.98073241083670   -2.58979247717599
H        -5.14209458214026    1.55859592174289    1.12660284526643
C         0.23590000000173   -1.68140000000189    2.96030000000090
N        -1.02829157323543   -1.98456080798829    3.21291174946795
C         1.18092497489341   -1.57966165342184    3.99922502387763
N        -1.46544374285474   -2.10076005098929    4.44317051514657
C         0.72667379428942   -1.71188171638795    5.29068092701790
H         2.21944600485657   -1.40887233035807    3.76146321910341
C        -0.64146098699469   -1.95545368523430    5.45811429592867
H         1.38407518198457   -1.64412014201808    6.14572517329701
H        -1.08886271563689   -2.05960369036602    6.43707311562247
