109
 energy: -157.536814472742 gnorm: 0.000973811784 xtb: 6.4.1 (1a32961)
N        -0.96509999999998   -2.11530000000002   -0.24090000000001
C        -2.24700000000000   -1.69839999999994   -0.36219999999991
C        -3.14039999999999   -2.36820000000004   -1.21199999999999
C        -2.70219999999991   -3.47560000000005   -1.93050000000010
C        -1.37779999999998   -3.89880000000010   -1.78760000000006
C        -0.54290000000003   -3.18670000000007   -0.93509999999995
H         0.49810000000001   -3.45630000000000   -0.78940000000001
H        -0.99570000000000   -4.76030000000002   -2.32769999999998
H        -4.16500000000000   -2.02889999999999   -1.31830000000000
C        -2.62129999999999   -0.50950000000002    0.44099999999997
N        -1.62600000000000    0.07329999999999    1.16020000000003
C        -1.89680000000000    1.15240000000002    1.91689999999999
C        -3.17230000000001    1.70330000000001    1.99649999999999
C        -4.20510000000000    1.11739999999999    1.26270000000002
C        -3.92610000000003    0.00250000000000    0.47820000000001
H        -4.71959999999998   -0.46420000000000   -0.09519999999998
H        -3.34629999999999    2.57510000000000    2.62070000000000
H        -1.04450000000001    1.57420000000000    2.43690000000001
Ir        0.42150000000000   -0.81650000000000    0.91330000000000
H         0.87260000000000   -2.23030000000000    1.54050000000000
B         0.50670000000001    0.41559999999999   -0.81539999999999
O         0.19500000000000   -0.04700000000001   -2.09150000000001
C         0.00649999999993    1.10040000000012   -2.95430000000002
C         0.49020000000002    0.74739999999997   -4.35779999999993
H         1.51609999999999    0.37380000000003   -4.33700000000000
H         0.44729999999999    1.62239999999998   -5.01670000000003
H        -0.14740000000003   -0.03389999999995   -4.78430000000001
C        -1.50119999999993    1.39560000000001   -2.96669999999998
H        -1.75370000000001    2.21460000000002   -3.64850000000002
H        -2.03199999999998    0.49449999999995   -3.28930000000001
H        -1.85170000000000    1.65209999999998   -1.96220000000002
C         0.84230000000000    2.20670000000005   -2.22039999999992
O         0.75200000000001    1.78260000000001   -0.83690000000001
C         2.32930000000004    2.18620000000001   -2.59899999999993
H         2.74130000000005    1.18499999999994   -2.45750000000000
H         2.48869999999999    2.51299999999998   -3.63180000000006
H         2.87199999999999    2.86270000000005   -1.93199999999998
C         0.28440000000006    3.62289999999993   -2.33660000000003
H        -0.72649999999998    3.69040000000000   -1.92909999999999
H         0.92129999999998    4.31480000000000   -1.77609999999996
H         0.26430000000000    3.94809999999999   -3.38320000000003
B         1.56300000000000    0.60959999999996    1.84839999999999
O         2.92779999999999    0.55230000000000    2.15020000000000
C         3.36329999999995    1.88660000000003    2.50259999999992
C         4.53139999999998    1.78589999999988    3.47740000000004
H         4.27909999999998    1.16090000000001    4.33690000000006
H         5.39390000000001    1.33790000000003    2.97339999999998
H         4.82389999999999    2.77869999999996    3.83820000000001
C         3.79699999999999    2.56849999999998    1.19669999999989
H         4.20020000000000    3.57090000000002    1.37680000000000
H         4.56740000000000    1.95559999999998    0.72109999999997
H         2.95240000000001    2.63260000000001    0.50539999999999
C         2.05039999999998    2.50089999999998    3.09320000000000
O         1.03750000000002    1.81620000000000    2.31909999999996
C         1.89100000000000    4.00450000000002    2.88649999999981
H         1.87290000000001    4.25440000000001    1.82410000000001
H         0.94939999999997    4.34260000000000    3.33169999999997
H         2.71080000000001    4.55149999999999    3.36629999999997
C         1.82470000000001    2.13199999999994    4.56519999999996
H         1.92610000000000    1.05329999999999    4.71320000000000
H         2.52609999999997    2.65280000000005    5.22539999999998
H         0.80630000000001    2.41580000000001    4.84900000000001
B         2.27820000000000   -1.33090000000000    0.17410000000000
O         2.89459999999998   -2.57739999999999    0.38450000000000
C         4.26929999999999   -2.48200000000001   -0.07210000000001
C         5.10900000000001   -2.05380000000002    1.14010000000000
H         4.76349999999999   -1.08740000000001    1.51750000000000
H         4.98050000000000   -2.79470000000002    1.93589999999999
H         6.17419999999999   -1.99290000000001    0.89300000000001
C         4.71949999999997   -3.84660000000001   -0.58470000000000
H         4.75280000000000   -4.56130000000000    0.24419999999998
H         5.72330000000000   -3.78370000000000   -1.02009999999999
H         4.03500000000000   -4.23599999999998   -1.34170000000001
C         4.16439999999999   -1.36220000000001   -1.16299999999999
O         3.08519999999999   -0.55030000000003   -0.65400000000000
C         5.40719999999999   -0.48870000000004   -1.31549999999996
H         6.27319999999998   -1.09009999999999   -1.61530000000000
H         5.23300000000000    0.26930000000001   -2.08590000000000
H         5.64270000000000    0.02650000000000   -0.38240000000000
C         3.71800000000001   -1.89829999999999   -2.53110000000000
H         2.82530000000002   -2.52160000000000   -2.42740000000000
H         3.46089999999998   -1.05250000000006   -3.17549999999999
H         4.50569999999999   -2.48290000000002   -3.01790000000001
H        -3.38499999999995   -4.00129999999996   -2.59310000000007
H        -5.21400000000000    1.52080000000002    1.29960000000000
C         0.23589999999999   -1.68139999999999    2.96030000000003
C        -0.93419264160881   -2.13442212597249    3.50810880501678
C         1.20327965574959   -1.72482979256370    4.00834013801793
N        -0.73053792085262   -2.42156221082253    4.85015626335538
H        -1.90648520462193   -2.28805143436381    3.07535667854835
C         0.59925183978765   -2.16784643885424    5.14313845941265
H         2.23855081635686   -1.45538539125114    3.89426669243455
C        -1.62259509979688   -2.98697697092057    5.74831842488323
H         0.96998172654372   -2.34294082898123    6.13797030650092
O        -1.28597218450897   -3.37241572125473    6.84650240276566
O        -2.85511176178973   -3.04118611521592    5.22455968275210
C        -3.95024184470744   -3.68118123242451    5.93788120128989
C        -4.16309671135421   -3.04118698308785    7.31220751404892
C        -5.16512156766447   -3.42687843156099    5.03890487947201
C        -3.67218056690735   -5.18182021819238    6.06280782124844
H        -4.27168791546347   -1.96053166931092    7.20988205369799
H        -3.31839919156721   -3.24751985693111    7.96755197809653
H        -5.06765953916638   -3.44858519266777    7.76211986343625
H        -5.33830034144609   -2.35498852730444    4.94389870044212
H        -6.04814106663214   -3.89612438723146    5.47105676622420
H        -4.98799659815944   -3.84034154280113    4.04624528301352
H        -2.78989816093440   -5.35311980900730    6.67842468747952
H        -3.50269269811171   -5.61545571982840    5.07612713254633
H        -4.52598225919856   -5.67436586777672    6.52614639513739
