17
 energy: -24.900421945037 gnorm: 0.000384997716 xtb: 6.4.1 (1a32961)
N        -0.34245582022648   -0.55998036843086   -0.00199808576711
C        -0.11098738665735   -1.97843421148795    0.00661946044044
C         0.63401115471374    0.40588433104429    0.01057602918562
C         1.99518158014289    0.11803946043990    0.03287352144097
N         3.12537068402326   -0.10546564473005    0.05258061841371
C         0.01375736038987    1.64872643613391   -0.00359014089794
C        -1.36151044114514    1.41197842838660   -0.02469266597246
C        -1.55471562718565    0.04270470070087   -0.02411030387643
C        -2.82099565768603   -0.73341426904047   -0.04460112969155
H         0.96105041845682   -2.16521353439173    0.04071461939188
H        -0.52355887488001   -2.43751555779855   -0.89398048610150
H        -0.57962621441658   -2.43461556195965    0.88070298797884
H         0.51296213970891    2.59783726630050    0.00130607838157
H        -2.13333358336695    2.15596681366186   -0.04007339937759
H        -3.66635513847153   -0.05206130736316   -0.06224384709888
H        -2.90141943122377   -1.36825076900321    0.83777209900080
H        -2.86878516217608   -1.37360621246235   -0.92547535545044
