93
 energy: -134.825819431092 gnorm: 0.000241851229 xtb: 6.4.1 (1a32961)
N        -0.90717363595125   -2.04508106314885   -0.35262582166404
C        -2.16079206361045   -1.58173879685435   -0.52549429808055
C        -3.03994932064441   -2.20290756396969   -1.42271854551778
C        -2.62184800304708   -3.29659645523014   -2.14750858083883
C        -1.32054026997266   -3.76022033989761   -1.96295000013124
C        -0.51399498958007   -3.10210211624078   -1.05926014544321
H         0.49970653541574   -3.43099443400030   -0.87757797594817
H        -0.95069549999073   -4.61380036222828   -2.50753688707195
H        -4.04443335595214   -1.83413580499763   -1.55036630515605
C        -2.52975605139985   -0.41882776611504    0.26897550006587
N        -1.59269272165462    0.04662631082594    1.12535836556816
C        -1.89203929475075    1.09896054691930    1.88568509755934
C        -3.10584013221314    1.75264797915746    1.83999057864667
C        -4.07392843114821    1.29837786044261    0.94688811224927
C        -3.77825757282447    0.20686883296721    0.15984099303676
H        -4.51238980400342   -0.15655822165740   -0.54001868902737
H        -3.29415525998233    2.59643997651694    2.48387434431361
H        -1.10521972212543    1.42556909659874    2.54814531945302
Ir        0.42150000000002   -0.81650000000003    0.91329999999995
H         0.87259999999996   -2.23029999999993    1.54050000000009
B         0.43841150197424    0.57401885948861   -0.63696655078055
O        -0.14919537068764    0.23305645595676   -1.84232517407970
C        -0.22546536964344    1.37934774310247   -2.69482691595184
C         0.10868513130251    0.97370376379921   -4.12842040544422
H         1.04779416174517    0.43137541321135   -4.16320732693561
H         0.16926404516572    1.85373340237016   -4.76358220313556
H        -0.67473498243149    0.32083709096452   -4.50608185565580
C        -1.67458377934178    1.88420335868719   -2.63683419315541
H        -1.82258296473658    2.73320565593123   -3.29762707262843
H        -2.33579547996533    1.07573864614294   -2.94320290474226
H        -1.93312206121546    2.16196938169202   -1.61683841696165
C         0.79029609024169    2.36714310146740   -2.03110062383977
O         0.86289636997321    1.88239187197619   -0.68358974829105
C         2.20071030129138    2.24234456983497   -2.62066444555242
H         2.53259745220789    1.21098673119462   -2.52920671130194
H         2.22938961238076    2.56523042554452   -3.65743001451567
H         2.87864484838528    2.86158479068969   -2.03772773583372
C         0.36247043249178    3.83356618154468   -2.03748856521353
H        -0.55037777168652    3.98158020718581   -1.46895377654323
H         1.14571839147214    4.43451989594289   -1.58172117460090
H         0.21204969982784    4.17169897104061   -3.05965411938099
B         1.56986718707593    0.63344337902089    1.88631930184395
O         2.94168920294565    0.71197176424403    1.96546960089388
C         3.33039614647943    2.00370759829001    2.45287406819583
C         4.53738893145311    1.86948050191260    3.37952463279596
H         4.34841758965710    1.14476415012697    4.16448517583417
H         5.39353070399557    1.52840824257682    2.80288110120386
H         4.77577214534570    2.83267971394200    3.82279902241882
C         3.71568569603596    2.83238128430524    1.22112705889486
H         4.01537084321524    3.84011754361643    1.49328882514448
H         4.54442340045419    2.33995286339334    0.71756221664880
H         2.87353499727742    2.85348378983944    0.53397156051710
C         2.02178633819545    2.52018322934878    3.14171306901309
O         1.00648060486217    1.71190228869470    2.53285767471935
C         1.70637983168657    3.99448594310210    2.89319992758301
H         1.52832478134580    4.17244140019221    1.83794779978134
H         0.80671834383367    4.26441524981366    3.44075444918263
H         2.52702152506816    4.61739364263748    3.23847925535948
C         1.98275873434669    2.24111406192964    4.64983481093480
H         2.15026348545339    1.18427638535579    4.83985412679648
H         2.72331652144832    2.83538279032871    5.17643149127127
H         0.99471079299854    2.49474411553488    5.02703123524290
B         2.27819999999958   -1.33090000000012    0.17409999999985
O         3.05088023405574   -2.37717160896811    0.63938406491492
C         4.35643795685352   -2.32967514771173    0.05085589052387
C         5.28037771452593   -1.69035752512936    1.09332512859268
H         4.87301691764282   -0.72408572007353    1.37810729547037
H         5.28990778303604   -2.32212637697469    1.97801241429307
H         6.29441578783255   -1.58744619161025    0.71940262992300
C         4.83504061572500   -3.74929207626243   -0.25091594533080
H         4.93805705461441   -4.28972883462741    0.68632030413685
H         5.80006220125606   -3.71960724756301   -0.74912498647931
H         4.12320164397705   -4.28374085725840   -0.87108221330612
C         4.13325710503431   -1.42016430298334   -1.20672971114662
O         2.91564993822116   -0.72991132340132   -0.88802191283048
C         5.24028744936034   -0.39981241505488   -1.46434140052900
H         6.19317719902214   -0.90383049927594   -1.60066117836012
H         5.00672605147715    0.16127533471145   -2.36580345006577
H         5.30858685784431    0.29959499568826   -0.63849800318867
C         3.87717429589568   -2.21940425600125   -2.49201564220264
H         3.06567846524929   -2.92566249121580   -2.33852445645846
H         3.57556661094217   -1.52906013411471   -3.27648279957352
H         4.77178274888917   -2.74641391468511   -2.80971309701608
H        -3.28892824113703   -3.78335180819231   -2.84266864611925
H        -5.03300683913995    1.78818434423558    0.87139927246085
C         0.23589999999905   -1.68139999999969    2.96030000000018
C        -0.97887561987801   -2.02707598873778    3.52012191745982
C         1.08878910200039   -1.56188856822764    4.07794633060655
N        -0.80972162099580   -2.05899837079506    4.86290504628505
H        -1.93003043959196   -2.24459731131045    3.07634559720134
N         0.44688928950712   -1.77736209157482    5.21143347005756
H         2.13517810662793   -1.33091855756465    4.07607050223499
H        -1.48957295112357   -2.26261034658977    5.57826185954425
