111
 energy: -163.149378367626 gnorm: 0.000458854659 xtb: 6.4.1 (1a32961)
N        -0.93974080043251   -1.85419663338995   -0.52353692473378
C        -2.12358419606038   -1.23886326806028   -0.72051824386162
C        -2.93765062822114   -1.57660054211339   -1.80764521142147
C        -2.53575846267990   -2.55755656020771   -2.68749107189743
C        -1.31592765697940   -3.19190760836626   -2.46651271402854
C        -0.56224515889207   -2.79939380669082   -1.38049456239824
H         0.39158904672296   -3.26204916490749   -1.16986277868341
H        -0.96502307650442   -3.96900631750524   -3.12586890056566
H        -3.87368235554174   -1.06837066529549   -1.97083028565517
C        -2.48443610780660   -0.21123392136265    0.24787343589826
N        -1.54825122140664    0.10246311950616    1.16984861277114
C        -1.83789464570065    1.02598442480213    2.08422435838739
C        -3.04389662065266    1.69414875386425    2.13777386069565
C        -4.01599338668810    1.38899777729670    1.18837719548849
C        -3.72944624867671    0.42913946975785    0.24157598709163
H        -4.47447566688009    0.16998621574752   -0.49214379817970
H        -3.22503680887057    2.42879013908223    2.90561104295087
H        -1.05412683809410    1.23395751724927    2.79581609152347
Ir        0.42150000000026   -0.81650000000003    0.91330000000004
H         0.87259999999988   -2.23029999999997    1.54050000000004
B         0.47949532783811    0.70825129563041   -0.52726928689092
O        -0.26272159822819    0.60568421135608   -1.69119118507480
C        -0.28631381318143    1.86586779045495   -2.37002875459088
C        -0.19533745693333    1.64211502096975   -3.87719033587021
H         0.65417871908276    1.01430366866018   -4.12422312234856
H        -0.10748022904132    2.59567641017802   -4.39172001857175
H        -1.09843138870271    1.14071680030580   -4.21721979791424
C        -1.63125012925278    2.52834160356310   -2.03791617833016
H        -1.73992615903379    3.47705712074450   -2.55483409954993
H        -2.43322426071764    1.86112325367316   -2.34713421041518
H        -1.71626621179580    2.68240367785525   -0.96403461212666
C         0.92839507183780    2.61670172560164   -1.73388239924718
O         1.07899104413645    1.94561736915485   -0.47512728477448
C         2.22927245167118    2.39353919655843   -2.51433488221732
H         2.40868235510787    1.32541016656178   -2.60951726117885
H         2.19033206932623    2.86386079151620   -3.49262893884077
H         3.05458198767851    2.82005920359761   -1.94870941470154
C         0.71725692220907    4.11237481573086   -1.50631437120304
H        -0.08128949042253    4.29277234752174   -0.79312920104638
H         1.63181501475675    4.54581693807929   -1.10809446888848
H         0.48073080294684    4.60235761661873   -2.44733840065104
B         1.60426091242327    0.61635206718257    1.87693708127658
O         2.96903837968438    0.73016453672563    1.85374534562326
C         3.39238798711087    1.94165383165044    2.49177246208552
C         4.57222306537245    1.63457121605151    3.41536078951845
H         4.32856078386130    0.82752960700571    4.09889149541385
H         5.42026435478294    1.31845207598183    2.81296448447835
H         4.85374026718961    2.51961233460610    3.97936861231963
C         3.85298429916264    2.88737219682338    1.37620433772413
H         4.15031189250204    3.85456457972538    1.76994524859250
H         4.70342227036001    2.43758424914630    0.86842753369120
H         3.04992931563973    2.99854874939176    0.65326763952084
C         2.09099650532303    2.43095025556411    3.22545697819949
O         1.06226215247020    1.61983406551983    2.64445933122655
C         1.74152868748376    3.90161455227631    2.99517774106343
H         1.56395877828436    4.08862526773943    1.94142293206888
H         0.83137085361914    4.13719899895636    3.54120152892913
H         2.54145134754626    4.54249788886651    3.35503738466944
C         2.09388839635920    2.15023588934763    4.73340165796550
H         2.27053024133478    1.09533022215331    4.91914889400323
H         2.84766113061522    2.74440656904011    5.24130055076294
H         1.11631841250292    2.40044165430129    5.13937550587967
B         2.27819999999954   -1.33090000000032    0.17410000000098
O         3.19186528803880   -2.17824811086484    0.76094298829625
C         4.41180184681884   -2.19856436337299    0.00940944149640
C         5.41076779015875   -1.31636321753272    0.76474578689413
H         4.97744015575145   -0.32954595070460    0.89701926736977
H         5.56945751462207   -1.74555455363446    1.75086423194197
H         6.36252630879697   -1.25414223567949    0.24599169176114
C         4.94548375537628   -3.62994228354130   -0.05158885640326
H         5.20466679545993   -3.94962037896186    0.95434190067817
H         5.83408006964919   -3.67234961651502   -0.67527670581053
H         4.19712498191415   -4.31388689246204   -0.43755936712995
C         3.97998353573606   -1.59212598637743   -1.37225891764336
O         2.74347080856010   -0.93286517959654   -1.06057824851061
C         4.95705081377390   -0.57604864018211   -1.96139475325473
H         5.93429177176773   -1.02921899094746   -2.10298159948698
H         4.58342459738189   -0.24110134156297   -2.92588385253090
H         5.04228611634261    0.28876754697127   -1.31249591765324
C         3.66917352987387   -2.65873671846261   -2.43134642495468
H         2.94988856201871   -3.37438462958693   -2.04319593278986
H         3.22506070105414   -2.17055884916093   -3.29544152171763
H         4.57190997932808   -3.17587706723320   -2.74195136611778
H        -3.15355716680585   -2.82580651613642   -3.53089473579050
H        -4.97350263961956    1.88738178300867    1.19564042222858
C         0.23590000000136   -1.68140000000101    2.96029999999878
C        -0.98346646049918   -2.12754007670780    3.48269018179326
C         1.29675468839708   -1.50421681710293    3.84811065771076
C        -1.14898157599782   -2.21133156769261    4.86826553522612
C        -2.13036173811959   -2.56974347666968    2.62278812843246
C         1.13919628619337   -1.63753757332946    5.22619569200680
H         2.27847479983270   -1.29067179362942    3.45442435093627
C        -0.11803510232387   -1.96042368737446    5.74441769360690
H        -2.11220501468297   -2.51208423000051    5.25686042099483
H        -2.56867134144509   -3.48002491571238    3.02949330441577
H        -1.79847968416122   -2.76049502700428    1.60722373370427
H        -2.91078684717004   -1.80946694724193    2.59871805215259
C         2.27683316104714   -1.51187980674973    6.10636143309408
H        -0.24431347053171   -2.04622771095354    6.81157448783355
N         2.29032516539432   -1.74302092402268    7.38376230179044
O         3.48990127829243   -1.15748215158288    5.58398296644399
C         3.59270339070030   -1.55266275076871    7.77879039316705
C         4.34187274007813   -1.18648670338623    6.64201185654581
C         4.21230177156942   -1.67348524864478    9.01628593099847
C         5.69818938904105   -0.93187695881555    6.69662254234266
C         5.56973457050891   -1.42423049004636    9.07011101968603
H         3.64681437338879   -1.95474644056379    9.88920749051269
C         6.29813506429362   -1.06132901843853    7.93693750821483
H         6.25328696367121   -0.65269127324171    5.81616326113839
H         6.08544759537033   -1.51368058491333   10.01424496474542
H         7.35784851668943   -0.87898717456615    8.02827704951306
