23
 energy: -30.328004707964 gnorm: 0.000144286919 xtb: 6.4.1 (1a32961)
C        -0.45949726089824   -0.02414325318879   -0.02521921837685
C         0.19371904030017    0.88926907220782    0.76401175655612
C         0.69093779787669    0.19528807764981    1.88100218954792
C         0.32436375783939   -1.11962419033968    1.73922083132186
N        -0.35908653995033   -1.22816298483911    0.57887258774940
O        -0.89085567742831   -2.39993101140943    0.10904134429881
Si       -2.52410376677768   -2.79931849698629    0.15119245801310
C        -3.23423492859518   -2.42700034581335    1.87851766673127
C        -3.48147997535297   -1.82728863698795   -1.18005027588741
C        -2.40150823807775   -4.64876774410650   -0.24971578831150
H        -0.97039222483560    0.08680007797539   -0.95941204848134
H         0.30195300851368    1.93657429112689    0.56101938584484
H         1.25362488408118    0.61029231704492    2.69381448758510
H         0.50123831619345   -1.97496869701781    2.35878129772616
H        -3.14508540375396   -1.37008132902350    2.11839448277622
H        -2.70670018789336   -2.98078872621822    2.65055256090576
H        -4.28451773235527   -2.69013031102603    1.94566789534490
H        -3.54087083213276   -0.76817634291939   -0.94177381254211
H        -4.49822463961409   -2.19367611318601   -1.27830214937667
H        -3.00550427320987   -1.92093343343533   -2.15290086236528
H        -1.88440978549959   -5.19286672260073    0.53410789942592
H        -1.86017919773456   -4.81401167681304   -1.17560293063714
H        -3.38950614069625   -5.08204382008928   -0.35904975784882
