99
 energy: -139.595932655885 gnorm: 0.000244439278 xtb: 6.4.1 (1a32961)
N        -0.92165720026445   -2.04698823657648   -0.34121137945311
C        -2.18245472755044   -1.59860695300204   -0.49988469082472
C        -3.09287117833959   -2.28468540617975   -1.31636957047810
C        -2.69250145235980   -3.41452868275525   -1.99316403739901
C        -1.37744291994922   -3.85101273876550   -1.84013683971840
C        -0.54561676533343   -3.13812808605575   -1.00347861907303
H         0.47722131597179   -3.44884722645781   -0.84289868784032
H        -1.01860184568680   -4.72792118122159   -2.35411488985183
H        -4.10915132401974   -1.93907438582664   -1.41280536090824
C        -2.52937035378667   -0.37761977540205    0.21124898567204
N        -1.60010833971253    0.10943135293152    1.06285434436261
C        -1.88075023731255    1.22013326877391    1.74218540754381
C        -3.06612067380440    1.91301780070836    1.61550034790716
C        -4.02228245202562    1.43955885692347    0.71872578909248
C        -3.74525688923562    0.28979632839598    0.01293764573684
H        -4.46540213237119   -0.08410530501333   -0.69623375796851
H        -3.24396326763252    2.80082453627018    2.20086147930438
H        -1.10388590741252    1.55603569636134    2.41140691514467
Ir        0.42150000000005   -0.81650000000011    0.91330000000006
H         0.87259999999987   -2.23029999999993    1.54050000000018
B         0.37937824228536    0.61760177069905   -0.60544744897245
O        -0.21281577819329    0.29785842148473   -1.81290462819472
C        -0.30481479369272    1.46174524495392   -2.64110011937053
C         0.02936912821768    1.08975636915189   -4.08368898593009
H         0.97476036512705    0.55980394531775   -4.13231567262938
H         0.07732285052002    1.98369489774272   -4.70030283477138
H        -0.74749071840114    0.43559134354485   -4.47247990223462
C        -1.75684699476250    1.95605251566364   -2.57099432007625
H        -1.91072413854538    2.81223647216326   -3.22125088544822
H        -2.41581814711414    1.14891837050553   -2.88527124124218
H        -2.01428782653533    2.22183925177179   -1.54766408308455
C         0.70248761968328    2.44537521406941   -1.95982891137297
O         0.77569633873344    1.93681862721870   -0.62106102205275
C         2.11380138852292    2.33830806806855   -2.55035814871354
H         2.44954212188853    1.30654393912880   -2.48000417458482
H         2.14085274883964    2.68239657157058   -3.58030100311751
H         2.78864435365312    2.94885625913245   -1.95529988878743
C         0.26615849867305    3.90910032521338   -1.94042977660386
H        -0.64562100586564    4.04215759924715   -1.36619347558000
H         1.04768608427457    4.50747524971782   -1.47811822619921
H         0.10953848603323    4.26351584355441   -2.95608842636839
B         1.54720129051262    0.67933670023025    1.84033092035065
O         2.90264285572863    0.91336599307083    1.74480737507590
C         3.23767090271296    2.17036024126824    2.34876192390447
C         4.54725008583956    2.03565678827098    3.12546785077081
H         4.49863345465701    1.21874587264127    3.83738252903151
H         5.35382727731613    1.82860793207041    2.42680106452876
H         4.76778157834019    2.96223538001511    3.64861100889050
C         3.42690032476275    3.16949560312141    1.20156711820058
H         3.66630967165697    4.16238694586637    1.57046411662142
H         4.24083671143876    2.81938217295178    0.57058978237759
H         2.52252996722606    3.19143331737027    0.59950244128764
C         1.97769190207753    2.47852071067580    3.22906846191953
O         0.97598730043659    1.62489200416368    2.66140762700471
C         1.49472917306037    3.92722070785064    3.17204812057084
H         1.19156540589516    4.19162614746118    2.16434441594081
H         0.63475604160804    4.04016802351690    3.82771487027969
H         2.28034315615899    4.59903851641289    3.50707982977691
C         2.14566277521083    2.06165683254107    4.69589165708378
H         2.43104075282288    1.01572632448775    4.75628280532385
H         2.88454899620453    2.68024570141361    5.19600733895305
H         1.18915117469856    2.17455633015218    5.20082216385263
B         2.27820000000003   -1.33089999999983    0.17409999999988
O         3.13285844866075   -2.29254705946473    0.67155605128876
C         4.39511897279233   -2.22725128887787   -0.00428017240865
C         5.33806665126081   -1.43313031315627    0.90609146210409
H         4.89697478509054   -0.46068299849651    1.10639594479924
H         5.43097053466408   -1.96147844821847    1.85134686540731
H         6.32236219815663   -1.32433074631242    0.46152537962578
C         4.94539477181935   -3.63844156634955   -0.20439034202519
H         5.16849717839899   -4.07050537248391    0.76742587266383
H         5.85888997307091   -3.60250949144487   -0.79134034650178
H         4.22197728201084   -4.27769115625586   -0.69928428445526
C         4.03709446151916   -1.45954687764596   -1.32258940244055
O         2.81265360424016   -0.79437001935637   -0.97640079083845
C         5.07074343512953   -0.42458887276825   -1.76215217889769
H         6.04020849473078   -0.89536452539630   -1.90030159911996
H         4.75765259814585    0.01613249603665   -2.70534940765276
H         5.14758178819588    0.36826131188262   -1.02626302500811
C         3.72770946039210   -2.39652336488415   -2.49825232266528
H         2.97890027662493   -3.12811065364630   -2.20705103095307
H         3.31817744416520   -1.80661138137511   -3.31480030089279
H         4.62476618219584   -2.90274120284504   -2.84180341410325
H        -3.38313952240753   -3.95020651290823   -2.62669772898381
H        -4.95701294955897    1.96125391763249    0.57737158233247
C         0.23589999999773   -1.68139999999703    2.96029999999849
C        -1.10815209402315   -1.87790466547254    3.26876766902626
C         1.16576357256496   -1.71710961014629    4.00737484987175
C        -1.55075880603749   -1.94602449275498    4.58056905947349
H        -1.84268523998587   -1.98920305371348    2.48334571061921
C         0.70934745154558   -1.77902374366826    5.31940818154889
C         2.64094996889136   -1.76359913257338    3.75150290590671
C        -0.63959604394579   -1.86660274181640    5.61664412098527
H        -2.60532869678966   -2.07027844511030    4.78709992893282
H         1.42823214981534   -1.77780699029639    6.12796170283451
H         2.88455286125560   -2.67392658957994    3.20725068557468
H         3.19786389721503   -1.74975778305232    4.68629404393112
H         2.94998553912818   -0.93797381167011    3.11948685704534
H        -0.97039037894672   -1.90657262075732    6.64482081522602
