96
 energy: -139.743414226799 gnorm: 0.000247246129 xtb: 6.4.0 (f63f532)
N        -0.91849199017201   -2.02973236756169   -0.37051283105203
C        -2.16957633558639   -1.56134554187154   -0.53537633663083
C        -3.04884192714450   -2.16488492873403   -1.44378157378517
C        -2.63003405465430   -3.24459543404054   -2.19005759536261
C        -1.32975241548174   -3.71166425098154   -2.01511906068266
C        -0.52393635947706   -3.07170413269603   -1.09675052526777
H         0.48957087469071   -3.40346577707316   -0.92053412090509
H        -0.95921207784445   -4.55354191608162   -2.57690321156044
H        -4.05290460840688   -1.79380917688638   -1.56610196591407
C        -2.53802452479687   -0.40541997025815    0.27355316805838
N        -1.59961585040548    0.05834160793868    1.12673699766838
C        -1.89524787196827    1.10756219876697    1.89102040838702
C        -3.11076402874773    1.75972775603853    1.85403338924246
C        -4.08261790386823    1.30455525147574    0.96705504825396
C        -3.78881107181472    0.21610525078801    0.17421173892966
H        -4.52752437891800   -0.14731986733216   -0.52046165731659
H        -3.29667742191104    2.60135625227517    2.50137523168338
H        -1.10555872199285    1.43363006946148    2.55020277232769
Ir        0.42150000000002   -0.81650000000003    0.91330000000011
H         0.87259999999995   -2.23029999999995    1.54050000000006
B         0.41320370083936    0.60455344337626   -0.61356051476276
O        -0.21905968640558    0.31245579779302   -1.80843579319082
C        -0.29736903400615    1.48866085982167   -2.62131598464669
C        -0.02953238046093    1.12452248307634   -4.07939705337003
H         0.89138819127148    0.55810551376012   -4.16961735494533
H         0.03347612457474    2.02517190819437   -4.68460327862940
H        -0.84550724612032    0.50863416566281   -4.45005680603771
C        -1.72777821639494    2.03080671192333   -2.48876166972514
H        -1.87702878287357    2.90170757016574   -3.11991995959447
H        -2.42434000760222    1.25053236432004   -2.78936340791353
H        -1.93667115953283    2.28794359275227   -1.45206838477348
C         0.76900391936326    2.42669241645175   -1.96641491102823
O         0.86629502645983    1.90274098983882   -0.63431518125532
C         2.15579819806089    2.27148899163872   -2.60229205949839
H         2.45223817917502    1.22630051723935   -2.55702665082891
H         2.16574418572169    2.62963005418312   -3.62766288172308
H         2.87258185398516    2.84502081259090   -2.01933461830784
C         0.38925201215630    3.90527449115659   -1.92092202824206
H        -0.49720618319549    4.06707687749883   -1.31557594665469
H         1.20773547444808    4.46935123812368   -1.48018917948330
H         0.21273587486915    4.27446896388830   -2.92798014136385
B         1.57196558612929    0.64292062800917    1.86842446810650
O         2.93992429492534    0.77144476996774    1.88552249228329
C         3.30810635186127    2.05117449853672    2.42218898380216
C         4.55285256299934    1.91039412533545    3.29664452552839
H         4.41975779450546    1.14455413647401    4.05342260981764
H         5.39670105596544    1.62557455219811    2.67342209304062
H         4.77851943496602    2.85803959630018    3.77794110140089
C         3.62375021329703    2.95037953734765    1.22126485456766
H         3.89823470203653    3.95316080684995    1.53467839195015
H         4.45231444079857    2.51289560483853    0.66879876485975
H         2.75921677140547    2.97607123876502    0.56296528176005
C         2.01174045123325    2.49103330284873    3.18470765827083
O         0.99946277255648    1.66531031258418    2.59097110232705
C         1.62800566581139    3.95896288816379    3.00777374550513
H         1.40334265456648    4.17199978799028    1.96800771898267
H         0.73977297232277    4.16807115958756    3.59906376996401
H         2.43469265942281    4.60152397053340    3.34964645557368
C         2.04975124746596    2.15739163942026    4.68051236532976
H         2.29459144932661    1.10922781782254    4.82354557052345
H         2.77319546253515    2.77552422031768    5.20289906481878
H         1.06376345843053    2.33254241706851    5.10501483777608
B         2.27820000000042   -1.33089999999965    0.17409999999921
O         3.09602196783790   -2.30291052149948    0.71054014403170
C         4.38450495953450   -2.27434459572541    0.08223896224420
C         5.32770791109574   -1.56179155784434    1.05743910680155
H         4.91269479778523   -0.58797314543500    1.30156710394463
H         5.37872516309615   -2.14377948057755    1.97440072654820
H         6.32743102347702   -1.46223988864632    0.64651363733685
C         4.87311450022384   -3.70548547649494   -0.14081658811100
H         5.00442368179521   -4.18463937814446    0.82585187225312
H         5.82596753859555   -3.69795314905962   -0.66236916310935
H         4.15369585647034   -4.28622292963251   -0.70846757180993
C         4.11443936709551   -1.45171239762099   -1.22748795508115
O         2.86800007239613   -0.79591193495972   -0.94533960872131
C         5.17174125604244   -0.39679871251650   -1.54860584550186
H         6.14656817838998   -0.86194911299393   -1.66513807580315
H         4.90703268748218    0.10215978517832   -2.47744611196246
H         5.21078504206032    0.34951743017203   -0.76282749305378
C         3.89211072583033   -2.33230818455523   -2.46448585687031
H         3.11013280912155   -3.06169129873507   -2.27217100664920
H         3.56453388279151   -1.69991051684387   -3.28620726453566
H         4.80762572877717   -2.83991178407016   -2.75253808327285
H        -3.29710783180449   -3.71659889511231   -2.89519528054333
H        -5.04396026733457    1.79085028831322    0.89962618538083
C         0.23590000000022   -1.68139999999965    2.96030000000064
C        -1.04614303038971   -2.05227559526125    3.36095964194466
C         1.22102830989053   -1.55304237328735    3.93930007769389
C        -1.36095539935125   -2.19829407591221    4.70206879827286
H        -1.81793215361190   -2.23263442046623    2.62616987245592
C         0.89235022455628   -1.71408431403325    5.26856129842515
H         2.23450564675159   -1.33407228552949    3.64056275748011
C        -0.39218788198394   -2.02381197079278    5.67603327805528
H        -2.36708656575953   -2.46125814552506    4.99735314223878
I         2.41406032849525   -1.51457857910765    6.74439442579691
H        -0.63281682288285   -2.14429648370937    6.72090834595433
