96
 energy: -144.249640039790 gnorm: 0.000260429104 xtb: 6.4.1 (1a32961)
N        -0.94608436320540   -1.97169726933797   -0.38534416045346
C        -2.16749601000662   -1.44132979526809   -0.56835801803546
C        -3.07434333439521   -2.02010690636090   -1.46476871285165
C        -2.71282852986887   -3.14173357739240   -2.17876852237502
C        -1.44101635407215   -3.67289900645208   -1.98562827645568
C        -0.60531299800166   -3.05120718908764   -1.08115061442900
H         0.38947419729167   -3.43136446072031   -0.89472454302048
H        -1.11366935735109   -4.54877788704668   -2.52165157308909
H        -4.05683869285244   -1.59951748325615   -1.60052642382717
C        -2.48113993275159   -0.24805083327453    0.20888442092998
N        -1.53584071752678    0.17847936205332    1.07220065992104
C        -1.78681422052238    1.25549652403895    1.81466479659032
C        -2.96087114394922    1.97552315781516    1.74144917648025
C        -3.93684132609721    1.56269534668234    0.83889649374934
C        -3.68968561756993    0.44435353444553    0.07157216614776
H        -4.43338714341091    0.11151956009764   -0.63287432037429
H        -3.11233851076311    2.83502872850041    2.37412647325544
H        -0.99875528606749    1.54137108289413    2.49544605957483
Ir        0.42150000000336   -0.81649999999631    0.91329999998899
H         0.87259999999273   -2.23030000001051    1.54050000001144
B         0.40833107007120    0.60064387729017   -0.61100435049283
O        -0.07883466949940    0.27521445494364   -1.85859313311383
C        -0.16385158180128    1.45052626486850   -2.67437383395763
C         0.30729959470821    1.12316873073279   -4.08886373344059
H         1.27561124480746    0.63448166194713   -4.06385451572007
H         0.36896240121275    2.03099058293344   -4.68332449521887
H        -0.40411124607691    0.44518615826933   -4.55433264785989
C        -1.64040389895150    1.86867390455341   -2.71626361776668
H        -1.78463320220873    2.72700178490613   -3.36571576294700
H        -2.22808569774234    1.03448329330874   -3.09448634512160
H        -1.99462842148444    2.10408109063219   -1.71445860735964
C         0.73371409018016    2.46891736544383   -1.89727649549987
O         0.71926197312121    1.94031091692964   -0.56264647851948
C         2.19213114544757    2.43564549007162   -2.36823265306355
H         2.56589706756636    1.41724730490030   -2.29335616874794
H         2.28851515469322    2.80686427686620   -3.38421501357649
H         2.78767206811697    3.05775858321784   -1.70511188743517
C         0.22776220470806    3.90960361392604   -1.89449021845483
H        -0.73615482493548    3.99045868470469   -1.40117615692293
H         0.93704587842845    4.53515495963251   -1.35776897929883
H         0.14371102484228    4.27417871349926   -2.91493944040915
B         1.60510416016145    0.64222392797245    1.84874444288142
O         2.85610580340696    1.08861170830905    1.53321194539790
C         3.20393417964615    2.25413546949869    2.29651102005788
C         4.56979085017375    2.02725596328587    2.94954464466496
H         4.58152166919242    1.10671892596119    3.52388939046430
H         5.32133550571840    1.94218973471023    2.16909110581512
H         4.82609633677959    2.86524171529082    3.59034652697380
C         3.31650224878930    3.41587470440940    1.30363442617141
H         3.52459647553195    4.35176090229014    1.81299071111778
H         4.12969932060961    3.20082801571725    0.61433043418971
H         2.39938311715331    3.49400675435617    0.72754105709766
C         2.00807019418068    2.39968766112821    3.31291249295662
O         1.09600022747059    1.36854350507825    2.90398172747311
C         1.26256228925223    3.73539467274596    3.23231995279899
H         0.85111428894835    3.88444283519253    2.23876781643954
H         0.43921753200285    3.71819936544430    3.94313182917961
H         1.92293033916233    4.55936734353419    3.48497703196186
C         2.38561335395601    2.14351058881799    4.77595517064144
H         2.87169000557305    1.18114958444136    4.89393090916909
H         3.04223719540926    2.92627796816486    5.14248831292996
H         1.47627397328301    2.13902034274062    5.37281885814721
B         2.27819999999641   -1.33090000000060    0.17410000008608
O         3.15813564175609   -2.22864676802492    0.73324595166498
C         4.40356168823857   -2.21247578225051    0.01984498122826
C         5.36720019382153   -1.34564390849862    0.83520271614966
H         4.93443612188619   -0.35769879005226    0.96364665302640
H         5.47890908806690   -1.78794018213030    1.82166924272935
H         6.33990959637873   -1.27912424967847    0.35886713793824
C         4.95241015251185   -3.63436359072686   -0.07595203968886
H         5.18386162920659   -3.98466139354395    0.92624670352379
H         5.86012620755422   -3.64317721991410   -0.67248218819754
H         4.22582350279145   -4.31215855310692   -0.51192576171737
C         4.00279809075976   -1.55574757699863   -1.34574548964290
O         2.77796978055024   -0.87505571744555   -1.02326927815545
C         5.01405458424929   -0.55097924757398   -1.89312087929696
H         5.98328543599237   -1.02551949050430   -2.01744585342789
H         4.67383551205772   -0.19098175068176   -2.86108685547786
H         5.10421967007203    0.29872640629931   -1.22516905740121
C         3.67287825934170   -2.58437923648699   -2.43556954439516
H         2.94017840909245   -3.29826686882063   -2.06885357211656
H         3.23687613344138   -2.06402866547202   -3.28516546453680
H         4.56716710487887   -3.10784205072015   -2.75936511160029
H        -3.40324256148588   -3.59657315484759   -2.87273608208487
H        -4.86661207537334    2.10230125128505    0.74131738083104
C         0.23589999989810   -1.68139999981178    2.96030000023769
C        -1.06994259938769   -2.00446389273972    3.32983762861964
C         1.12187937373205   -1.63292530858034    4.03527339605714
C        -1.51311086542030   -2.12932230113591    4.63215957864724
F        -1.99900339912701   -2.24062910597265    2.35372743567941
Br        2.98892692444551   -1.47442074434162    3.73736153457975
C         0.72787896151902   -1.75112051901461    5.35904777996192
C        -0.60251909405572   -1.97533139012185    5.66319622272204
H        -2.55192273559508   -2.35444454911196    4.81758002004285
H         1.46710505421274   -1.68264379731271    6.14138881265436
H        -0.92014528422398   -2.05957536178841    6.68962212744414
