96
 energy: -144.245175268618 gnorm: 0.000225412638 xtb: 6.4.1 (1a32961)
N        -0.98781115972842   -2.01465532298432   -0.32138707626281
C        -2.21486854251706   -1.49276792426812   -0.49973530774675
C        -3.11333611447037   -2.06275086974501   -1.40999161578064
C        -2.73680947731005   -3.16648225118533   -2.14479810127304
C        -1.46085017044106   -3.68941310693814   -1.95575430754559
C        -0.63373135007116   -3.07905226268887   -1.03514858238598
H         0.36238693548790   -3.45438466998344   -0.84824460498764
H        -1.12276709450018   -4.55032769674975   -2.50889673751856
H        -4.09792523499556   -1.64694831137482   -1.54476141084907
C        -2.53523420985600   -0.30924601358900    0.29279705853018
N        -1.57415310202656    0.13297080668702    1.13050413974472
C        -1.81848119350531    1.20988162146978    1.87348757738572
C        -3.00695359505626    1.91084510084431    1.82993924231515
C        -4.00280155362729    1.47643152726740    0.96024525028066
C        -3.76057644890634    0.35950889340217    0.18856685934371
H        -4.51962724817769    0.01187424878525   -0.49198549739912
H        -3.15376315355300    2.77278241651394    2.46018113049347
H        -1.01271377576788    1.51233874358877    2.52473654103378
Ir        0.42149999999994   -0.81650000000000    0.91329999999996
H         0.87260000000001   -2.23030000000014    1.54049999999995
B         0.40066906552603    0.55774425243005   -0.64563347309971
O        -0.10083136645115    0.19122906123521   -1.87858556671787
C        -0.21251767430070    1.34284872869377   -2.72387913346051
C         0.21994601492773    0.98008224088014   -4.14197053752915
H         1.19152113931588    0.49771027035799   -4.13295421264829
H         0.25820379996044    1.87180444937107   -4.76224619462662
H        -0.50007457003294    0.28575922085198   -4.56814022618575
C        -1.69241865089916    1.75195130559526   -2.73350265243958
H        -1.86267229544782    2.59016047694220   -3.40255499572381
H        -2.28504509672236    0.90326286283872   -3.06901015407410
H        -2.01590986704376    2.01328665419226   -1.72788896848359
C         0.69978130967306    2.38526009585230   -1.99797952099861
O         0.71439213773999    1.89711170589811   -0.64799831354378
C         2.14850935521503    2.33959523845857   -2.49766697571454
H         2.52847487168429    1.32667129836929   -2.38766021286592
H         2.22293004167198    2.66995544333002   -3.52959242879402
H         2.75370923037470    2.99098280429151   -1.87218944085486
C         0.19077119244509    3.82447421436999   -2.02954919284286
H        -0.76296067365119    3.91831949816859   -1.51960617473763
H         0.90899642557964    4.46678185929348   -1.52586912246839
H         0.08552844792940    4.15748340702892   -3.05883398269407
B         1.62392065149354    0.62851202463125    1.83538278520473
O         2.93589682978361    0.94617486303539    1.61808290016803
C         3.27946216092347    2.16158159342864    2.29856701438354
C         4.65966810670102    2.01573439439939    2.93914677689519
H         4.70914705085044    1.12514680252169    3.55715620438613
H         5.40679122285721    1.92386830095532    2.15486810421464
H         4.88935107418941    2.89150657471545    3.53959388630275
C         3.32786391975736    3.25937302752452    1.22945277651513
H         3.55427901206891    4.22873984088895    1.66314103517018
H         4.10124884825715    3.00263609318779    0.50930431299134
H         2.37741378572627    3.28698129880556    0.70317986673722
C         2.09707604608434    2.34364647300510    3.31487113593928
O         1.09182862876422    1.45881545397077    2.79955874414277
C         1.52089938696213    3.75778268234398    3.38576692399166
H         1.10767750177979    4.05288923728713    2.42698913886377
H         0.72231147348007    3.77732136821573    4.12363436184828
H         2.29087560744817    4.46272768768371    3.68624623377648
C         2.43668499427905    1.87329131834603    4.73451232844051
H         2.82443459339881    0.85984813202546    4.71137346213223
H         3.16372800239775    2.53214358407489    5.19916875799411
H         1.52644691087087    1.87542465768999    5.33016520284421
B         2.27819999999999   -1.33090000000031    0.17410000000071
O         3.06655125239321   -2.34101937573190    0.68097686169720
C         4.37642994650605   -2.28237376416067    0.10127637303780
C         5.27561002465492   -1.59774989092297    1.13569813012709
H         4.85822018776203   -0.62396589002817    1.37450838701979
H         5.26677581869241   -2.19348249914138    2.04500338618655
H         6.29662818402909   -1.50343046736947    0.77957749786501
C         4.88307243958678   -3.70085775451851   -0.15702843707075
H         4.98675311170699   -4.21284484456375    0.79606631749845
H         5.85216737624132   -3.66789606903911   -0.64663083580539
H         4.18666448900460   -4.26500481782564   -0.76840894116321
C         4.14657068580067   -1.41082269610618   -1.18332802585178
O         2.89788814210060   -0.75613349501439   -0.90760759028866
C         5.21791729598670   -0.35203055549611   -1.43682083640216
H         6.19501108960510   -0.81740119337600   -1.53074437505510
H         4.98813473313162    0.17389088079703   -2.36012937159453
H         5.22791518102101    0.37020891118241   -0.62811415835998
C         3.94961714933975   -2.24556560499563   -2.45562781982386
H         3.15818801429271   -2.97499313156348   -2.30746340202530
H         3.64720541877437   -1.58205830114275   -3.26211802916864
H         4.86917894635597   -2.74914430965300   -2.73749907806540
H        -3.41860095947440   -3.61299280650378   -2.85236756599799
H        -4.94413986441787    1.99975032171446    0.88911381354827
C         0.23589999999935   -1.68139999999992    2.96029999999985
C        -1.06135262543720   -2.01003597325407    3.35949213764650
C         1.17810673005279   -1.60669846130669    3.98065514842884
C        -1.41543274660056   -2.15236808196737    4.69089210495422
H        -1.82888610950303   -2.15841965019219    2.61488928496680
F         2.48700258264979   -1.39713927013521    3.68401846595551
C         0.87215196597735   -1.74848423781191    5.32187308788474
C        -0.44341357938345   -2.00673062322659    5.66326992154289
H        -2.43345372178554   -2.37971762443735    4.96813394004197
H         1.64637473087370   -1.66450254357815    6.06845665478211
Br       -0.90906105618377   -2.19004588832672    7.50678690949214
