118
 energy: -173.578845866850 gnorm: 0.000557730354 xtb: 6.4.1 (1a32961)
N        -0.96510000000002   -2.11530000000000   -0.24090000000000
C        -2.24699999999999   -1.69840000000000   -0.36220000000000
C        -3.14040000000000   -2.36820000000000   -1.21200000000000
C        -2.70219999999999   -3.47560000000000   -1.93050000000000
C        -1.37780000000000   -3.89880000000000   -1.78760000000000
C        -0.54290000000000   -3.18670000000000   -0.93510000000000
H         0.49810000000000   -3.45630000000000   -0.78940000000000
H        -0.99570000000000   -4.76030000000000   -2.32770000000000
H        -4.16500000000000   -2.02890000000000   -1.31830000000000
C        -2.62130000000000   -0.50950000000000    0.44100000000000
N        -1.62599999999998    0.07330000000000    1.16020000000000
C        -1.89680000000006    1.15240000000000    1.91690000000000
C        -3.17229999999998    1.70330000000003    1.99650000000000
C        -4.20510000000000    1.11740000000000    1.26270000000000
C        -3.92610000000000    0.00249999999999    0.47820000000000
H        -4.71960000000000   -0.46420000000000   -0.09520000000000
H        -3.34630000000000    2.57510000000000    2.62070000000000
H        -1.04450000000002    1.57420000000000    2.43690000000000
Ir        0.42150000000000   -0.81650000000000    0.91330000000000
H         0.87260000000000   -2.23030000000000    1.54050000000000
B         0.50670000000000    0.41560000000000   -0.81540000000000
O         0.19500000000000   -0.04700000000000   -2.09150000000000
C         0.00650000000000    1.10040000000000   -2.95430000000000
C         0.49020000000000    0.74740000000000   -4.35780000000000
H         1.51609999999999    0.37380000000000   -4.33700000000000
H         0.44730000000000    1.62240000000000   -5.01670000000000
H        -0.14740000000000   -0.03390000000000   -4.78430000000000
C        -1.50120000000000    1.39560000000000   -2.96670000000000
H        -1.75370000000000    2.21460000000000   -3.64850000000000
H        -2.03200000000000    0.49450000000000   -3.28930000000000
H        -1.85170000000000    1.65210000000000   -1.96220000000000
C         0.84230000000000    2.20670000000002   -2.22040000000000
O         0.75200000000000    1.78260000000000   -0.83690000000000
C         2.32930000000000    2.18620000000000   -2.59900000000000
H         2.74130000000000    1.18500000000000   -2.45750000000000
H         2.48870000000000    2.51300000000000   -3.63180000000000
H         2.87200000000000    2.86270000000000   -1.93200000000000
C         0.28440000000000    3.62290000000000   -2.33660000000000
H        -0.72650000000000    3.69040000000000   -1.92910000000000
H         0.92130000000000    4.31480000000000   -1.77610000000000
H         0.26430000000000    3.94810000000000   -3.38320000000000
B         1.56300000000000    0.60960000000000    1.84840000000000
O         2.92780000000000    0.55230000000000    2.15020000000000
C         3.36329999999999    1.88660000000000    2.50260000000000
C         4.53140000000000    1.78590000000000    3.47740000000000
H         4.27910000000000    1.16090000000000    4.33690000000000
H         5.39390000000000    1.33790000000000    2.97340000000000
H         4.82390000000000    2.77870000000000    3.83820000000000
C         3.79700000000000    2.56850000000000    1.19670000000000
H         4.20020000000000    3.57090000000000    1.37680000000000
H         4.56740000000000    1.95560000000000    0.72110000000000
H         2.95240000000000    2.63260000000000    0.50540000000000
C         2.05040000000000    2.50090000000000    3.09320000000000
O         1.03750000000000    1.81620000000000    2.31910000000000
C         1.89100000000000    4.00450000000000    2.88650000000000
H         1.87290000000000    4.25440000000000    1.82410000000000
H         0.94940000000000    4.34260000000000    3.33170000000000
H         2.71080000000000    4.55150000000000    3.36630000000000
C         1.82470000000000    2.13200000000000    4.56519999999999
H         1.92610000000000    1.05330000000000    4.71320000000000
H         2.52610000000000    2.65280000000000    5.22540000000000
H         0.80630000000000    2.41580000000000    4.84900000000000
B         2.27820000000001   -1.33090000000000    0.17410000000000
O         2.89460000000000   -2.57740000000000    0.38450000000000
C         4.26930000000000   -2.48200000000000   -0.07210000000000
C         5.10900000000000   -2.05380000000000    1.14010000000000
H         4.76350000000000   -1.08740000000000    1.51750000000000
H         4.98050000000000   -2.79470000000000    1.93590000000000
H         6.17420000000000   -1.99289999999999    0.89300000000000
C         4.71950000000000   -3.84660000000001   -0.58470000000000
H         4.75280000000000   -4.56130000000000    0.24420000000000
H         5.72330000000000   -3.78370000000000   -1.02010000000000
H         4.03500000000000   -4.23600000000000   -1.34170000000000
C         4.16440000000000   -1.36220000000000   -1.16300000000000
O         3.08520000000000   -0.55030000000000   -0.65400000000000
C         5.40720000000000   -0.48870000000001   -1.31550000000000
H         6.27320000000000   -1.09009999999999   -1.61530000000000
H         5.23300000000000    0.26930000000000   -2.08590000000000
H         5.64270000000000    0.02650000000000   -0.38240000000000
C         3.71800000000000   -1.89830000000001   -2.53110000000000
H         2.82530000000000   -2.52160000000000   -2.42740000000000
H         3.46090000000000   -1.05249999999999   -3.17550000000000
H         4.50570000000000   -2.48290000000000   -3.01790000000000
H        -3.38500000000001   -4.00130000000000   -2.59310000000000
H        -5.21400000000000    1.52080000000000    1.29959999999999
C         0.23590000000000   -1.68140000000000    2.96029999999999
C        -0.99900441514594   -2.16786836373945    3.39963640145599
C         1.31565018472733   -1.67922744966464    3.85051494135037
C        -1.12929828368019   -2.61527926033197    4.71538859189929
H        -1.84338856475385   -2.22992236496614    2.72845698852441
C         1.20718597692570   -2.13264893677776    5.15177199307009
H         2.27997107966106   -1.34915483117534    3.48802689682689
N        -2.22681697938377   -3.19183314243632    5.38894634355156
C        -0.02375783233975   -2.63126450633008    5.58235822823550
H         2.06240129437481   -2.15002505336788    5.81417430958104
C        -3.55593777699596   -3.26853165612704    5.00709507014036
C        -1.77571286459614   -3.62435324781191    6.65073763094678
C        -0.42412945522577   -3.27794688742777    6.79541577167284
O        -4.42472502730119   -3.74026286951427    5.71027286661919
O        -3.78204047112005   -2.76459010459676    3.78345504294330
C        -2.44746548655445   -4.31517418325861    7.65634335309116
C         0.27495774615772   -3.62070231806655    7.95461663748496
C        -5.15687592025181   -2.72503986468117    3.34723422549907
C        -1.73492135300547   -4.64931974555487    8.80063417131567
H        -3.48700724532254   -4.58901834023952    7.55252655369982
C        -0.39610486950425   -4.31074015867164    8.95075610219661
H         1.31912935030925   -3.35963950447738    8.05949657604937
C        -5.70911844445249   -1.32431043334887    3.58962090459682
C        -5.18328746822270   -3.12089469855012    1.87731005737919
H        -5.71946631403897   -3.45200906621523    3.94631151182762
H        -2.24006045919993   -5.19285468953019    9.58889091947306
H         0.12818885828633   -4.59528585285667    9.85381680521277
H        -5.10893051078630   -0.59083059472875    3.05053222396854
H        -5.67893174825631   -1.09037194459161    4.65399176878597
H        -6.74181145072529   -1.27117022667702    3.24817962308902
H        -4.53550445779259   -2.45514511426771    1.30840030103186
H        -6.20256633523683   -3.05060038016918    1.50048063310852
H        -4.82798542456648   -4.14366404213338    1.75425868480892
