118
 energy: -173.595583856833 gnorm: 0.000403844803 xtb: 6.4.1 (1a32961)
N        -0.92295240971379   -1.94712445551846   -0.44997532051561
C        -2.16175142993392   -1.43851738091068   -0.59305613654061
C        -3.01116311333166   -1.88654900958196   -1.61250550453562
C        -2.58140331184047   -2.86247510588255   -2.48449118900939
C        -1.29930331451427   -3.38143469095491   -2.32283391910990
C        -0.51916069225501   -2.88932849433996   -1.29747315093203
H         0.48236731182594   -3.26117043325360   -1.13471051469179
H        -0.92145257986103   -4.14720856333314   -2.98044756958609
H        -3.99749481574208   -1.46876353974548   -1.72996607944797
C        -2.54530506072767   -0.39763876000197    0.35286332692604
N        -1.59237970078078    0.01256569852960    1.21517891030193
C        -1.89643474049533    0.95548803744227    2.10325394168123
C        -3.13787409058754    1.55186057660056    2.18714762555579
C        -4.12876855581070    1.15037517650975    1.29484479776352
C        -3.82604277606150    0.16892070792685    0.37558068496225
H        -4.58486409959019   -0.16078607768695   -0.31484382254277
H        -3.33117428864149    2.30645251255444    2.93241405948553
H        -1.09232082159543    1.24324658700355    2.76275159137930
Ir        0.42150000000001   -0.81649999999994    0.91329999999991
H         0.87259999999999   -2.23030000000003    1.54049999999987
B         0.38200491610397    0.69549649732993   -0.53644929876564
O        -0.42539758512455    0.56925046518984   -1.65615497619507
C        -0.53859242546254    1.83161681009378   -2.32157348846041
C        -0.53602650043505    1.62421785786135   -3.83395483813851
H         0.31677044164980    1.02865519352262   -4.14210834585652
H        -0.51304017517160    2.58512365376643   -4.34184857940561
H        -1.44174787744304    1.09588812967264   -4.12246080835074
C        -1.88341367827670    2.44100226378517   -1.89835162946109
H        -2.06239337749931    3.38695749915826   -2.40066263506356
H        -2.67821924229011    1.74485209623855   -2.15925994316440
H        -1.90442453033953    2.58738579318266   -0.82012037765767
C         0.68532162156577    2.62361929580903   -1.75717997106680
O         0.93960207188251    1.95266829462713   -0.51594553816717
C         1.94300487911653    2.45391976667646   -2.61775759103806
H         2.15227985037589    1.39407846995150   -2.74117421736418
H         1.82976018723274    2.93584479775326   -3.58454535095524
H         2.78538167199857    2.89988991821068   -2.09418782449742
C         0.43409754967856    4.10909922972089   -1.50511990312616
H        -0.31986133971827    4.25501981072267   -0.73758822821477
H         1.35684183017455    4.57451943552917   -1.16676807167152
H         0.11524130599124    4.59435801143366   -2.42399256768147
B         1.57485650169946    0.63642145288623    1.87354147442431
O         2.94016337626861    0.76958555596144    1.86752327030897
C         3.32360524861601    2.01438005902983    2.46905025276376
C         4.56094971662894    1.80447170351350    3.34109250487461
H         4.40229250443546    1.00761470596744    4.05961959360808
H         5.39860930223471    1.52503801207856    2.70742407746481
H         4.80933548936468    2.72370988312990    3.86458123037282
C         3.66536405362912    2.96820715736927    1.31803097333907
H         3.93891605325642    3.95361321754955    1.68289109699917
H         4.50213340051845    2.55341330495610    0.76037564530850
H         2.81309537819700    3.02983629066062    0.64671550696945
C         2.02966241011087    2.43430032198308    3.24963096019682
O         1.01024079920244    1.63709045743999    2.63123768799394
C         1.65568705284260    3.91029985503861    3.12451887658808
H         1.44524461007006    4.16403073268930    2.09089371699144
H         0.76075975081722    4.10099049107925    3.71182745303172
H         2.46064639003126    4.53575483819619    3.50066764115933
C         2.06708049735769    2.04528635049516    4.73309186082222
H         2.26471030638117    0.98176615791226    4.83239046779000
H         2.81868074543990    2.61676027008295    5.26867239945594
H         1.09246089371799    2.24525195843672    5.17226379948537
B         2.27819999999907   -1.33089999999919    0.17410000000161
O         3.20050977713543   -2.17310317383261    0.75252092704102
C         4.42384237696223   -2.16577849419039    0.00462073606837
C         5.40929451006701   -1.28760244543847    0.78237570606931
H         4.95706635550700   -0.31398232854918    0.94600922357942
H         5.58352597565044   -1.74304753859446    1.75385170950011
H         6.35629414724664   -1.19105703579785    0.26055053717376
C         4.97396569576189   -3.58963216215162   -0.08173608241356
H         5.22159361548532   -3.93022248312740    0.92012008757346
H         5.87219976789454   -3.60686519808693   -0.69260065231517
H         4.24015374237338   -4.27292569516750   -0.49579751379664
C         3.99149550799057   -1.53789396839731   -1.36845235985676
O         2.73740454157845   -0.91396959546653   -1.05548438236798
C         4.94764493995750   -0.48292385223523   -1.92307455887207
H         5.93433472685708   -0.90990224348331   -2.07950922891643
H         4.56542780938919   -0.12489918969320   -2.87577378805313
H         5.01366573560336    0.36216524721768   -1.24668092352329
C         3.71880064674936   -2.58496713269647   -2.45719129719777
H         3.00847046658748   -3.32471766706749   -2.09893704271191
H         3.27870123079778   -2.08552202581563   -3.31682955416446
H         4.63683150131247   -3.07593512000300   -2.76515334501031
H        -3.22541138643772   -3.21412738339447   -3.27595641324856
H        -5.11285042602330    1.59413518608939    1.32266014844157
C         0.23590000000152   -1.68139999999585    2.96030000000358
C        -1.03142883704979   -2.07455865770763    3.38822581596129
C         1.27659713535287   -1.57106947849196    3.89246527593196
C        -1.25463107489234   -2.25867041841474    4.74409093266189
H        -1.82492838214012   -2.24142496341002    2.67990305969566
C         1.06521899012371   -1.76368082087671    5.24135235602822
H         2.26706361457592   -1.34660044539060    3.52814402711512
N        -2.42367606350599   -2.64057536538672    5.43959532463549
C        -0.20975929945981   -2.10376094560530    5.67479081849307
H         1.87249236305359   -1.67702698741816    5.95301009194402
C        -3.67929931146176   -2.87082704515067    4.94979856296645
C        -2.09512018532550   -2.73889863909385    6.80684978161207
C        -0.73717252784689   -2.40747753350632    6.97776185795181
O        -4.62284030097677   -3.19462818350614    5.64058500334147
O        -3.76216434763989   -2.70721807562059    3.62536244532728
C        -2.87840851284702   -3.09887567812102    7.88888038981165
C        -0.15990796045337   -2.43224862109216    8.23938203128709
C        -5.05384186606339   -2.92888208463277    3.02031101656026
C        -2.28415906500940   -3.12051167948629    9.14194674332442
H        -3.91666478514764   -3.35730398838352    7.76734420909811
C        -0.94556590249293   -2.79194045709404    9.31849248315834
H         0.88075515613477   -2.17837285136624    8.36744346950855
C        -5.88205693174092   -1.65144445592436    3.09907163195812
C        -4.79899787248807   -3.37068738749592    1.58682089464154
H        -5.55357772276449   -3.72596925668393    3.58599825253391
H        -2.87991384121753   -3.40199376038447    9.99701948639484
H        -0.51737530391166   -2.82111299699308   10.30919835709182
H        -5.35678151453125   -0.84130974013014    2.59834481099278
H        -6.04512747114195   -1.37852271989483    4.13928965666438
H        -6.84482298976234   -1.80969161984490    2.62308107875006
H        -4.26713826636677   -2.59023394692488    1.04901169839134
H        -5.74597976426657   -3.56744832639943    1.09414739925618
H        -4.19687131394084   -4.27533507789549    1.57399374039296
