109
 energy: -157.547902449738 gnorm: 0.000335103928 xtb: 6.4.1 (1a32961)
N        -0.89389050849070   -1.96122286755380   -0.45119846041607
C        -2.14192691299195   -1.47358576904621   -0.59260138369046
C        -2.97136056551341   -1.90298006173736   -1.63549115169316
C        -2.51648961161506   -2.84811295591736   -2.52837596469961
C        -1.22948573683791   -3.35441621383110   -2.36248065741775
C        -0.46677464928759   -2.87633314498736   -1.31813180630309
H         0.53887106734937   -3.23656523742245   -1.15412582431691
H        -0.83384688713862   -4.09884018809541   -3.03417229339131
H        -3.95894646919801   -1.48872291526985   -1.75617093696850
C        -2.55388579439857   -0.46897029249597    0.37943003251873
N        -1.59598425651150   -0.00887336611813    1.21158258466898
C        -1.92088187873418    0.91831195010865    2.10946271156661
C        -3.19348027352396    1.43512812806659    2.24394260122514
C        -4.19620130323762    0.96224447115268    1.40107436878710
C        -3.86855976610255    0.00663737766611    0.46366083378101
H        -4.63205773956357   -0.38031739773568   -0.19076808520947
H        -3.40093172948702    2.18163995863650    2.99346334850954
H        -1.10962001640794    1.25377577315440    2.73706993553422
Ir        0.42149999999988   -0.81649999999937    0.91329999999992
H         0.87259999999973   -2.23030000000010    1.54050000000019
B         0.39476791965928    0.66997242546026   -0.55210048437661
O        -0.32560002404426    0.48664641728297   -1.72216135912219
C        -0.46919889915165    1.73448932230387   -2.40774369654251
C        -0.34918071680644    1.51586488810315   -3.91365990362380
H         0.55573209635474    0.96744174087677   -4.15306338288392
H        -0.34495521839167    2.47209227856797   -4.43078119079043
H        -1.20055456781518    0.93321583811815   -4.25768847307640
C        -1.87498696334346    2.26199611444110   -2.08373931852521
H        -2.07819288706947    3.19097479005949   -2.60818887138163
H        -2.60545146883465    1.51486628318191   -2.38835438447669
H        -1.97701370564274    2.41478875847946   -1.01110366950861
C         0.66250138725957    2.60343107283104   -1.76928551486164
O         0.86630482997248    1.96229713033308   -0.50346300976653
C         1.98648087702235    2.49779838640930   -2.53576852808961
H         2.26452372675375    1.45030311569876   -2.62498266723834
H         1.91576414135979    2.95991196069835   -3.51623976431090
H         2.76177220808584    2.99855429582906   -1.96053999038377
C         0.30755500543961    4.07414101399586   -1.56012133972042
H        -0.51433128391432    4.18403807059888   -0.85941612585089
H         1.17139253126266    4.59492254975690   -1.15396689560194
H         0.03861154979513    4.53033619973187   -2.50942962038749
B         1.56706782274187    0.60665694207307    1.92658764507973
O         2.93216257118252    0.75141656473799    1.94056877140474
C         3.29059647597816    1.99195623973604    2.56609078710462
C         4.54064318254433    1.80112263801755    3.42319649768054
H         4.41567831755837    0.97805717492553    4.11907047526285
H         5.38467169413834    1.57222009128106    2.77766921438896
H         4.75791392689259    2.71271156167896    3.97352849992381
C         3.59009880406401    2.97924316781419    1.43108365105247
H         3.85409312688088    3.96056632383276    1.81389126660512
H         4.42091432333334    2.59185879751616    0.84564680064103
H         2.72237341679083    3.04056263747784    0.77919072267631
C         1.99482552460301    2.36158982114027    3.36479337170834
O         0.98682387510609    1.58289056059204    2.70810902375472
C         1.60532555226866    3.83809120069561    3.31098290602049
H         1.38543419876822    4.13840669938254    2.29208714690088
H         0.71289378115590    3.99225962436852    3.91263587138276
H         2.40767606220810    4.45243053291025    3.71044749982359
C         2.03818594737760    1.90674570766195    4.82973255954271
H         2.27610767562824    0.84792961652008    4.88944734586282
H         2.76646713704757    2.47954695593027    5.39574915707794
H         1.05445375756065    2.05425185042357    5.26997370091993
B         2.27819999999886   -1.33089999999814    0.17410000000219
O         3.14053181572196   -2.26895592939796    0.70174374304960
C         4.41142110789950   -2.20643735076267    0.04232658059212
C         5.35338935318245   -1.44286680339607    0.97934836141230
H         4.90768204385681   -0.48166687637304    1.21818922699276
H         5.44827567071460   -2.00483053848539    1.90514131084090
H         6.33768350275729   -1.31454663761924    0.53965165696391
C         4.94708084213360   -3.62270896417378   -0.16923324567444
H         5.12624587650172   -4.07692734578725    0.80163708726683
H         5.88215799369743   -3.58955678386551   -0.72139393540522
H         4.23241594277563   -4.24077072843953   -0.70221909058581
C         4.08323822068452   -1.41765217917590   -1.27476275701004
O         2.82470367418299   -0.79855005679969   -0.97258977364058
C         5.09464995101890   -0.33301886832300   -1.64269860345003
H         6.08202293222726   -0.76514954582174   -1.77983219944889
H         4.78513813903945    0.13967066499910   -2.57150801093411
H         5.12832039511518    0.42820998517265   -0.87102618500540
C         3.86186805874011   -2.32857995961317   -2.49027095787242
H         3.11707674239308   -3.08590708090391   -2.26240202573225
H         3.48507950928456   -1.72443778622580   -3.31198228362910
H         4.78885086237599   -2.80394234983412   -2.79619859814502
H        -3.14336417073918   -3.18534988026136   -3.33978719935383
H        -5.20732018343785    1.33183909361314    1.48018507361238
C         0.23590000000003   -1.68140000000329    2.96030000000372
C        -1.00704759150615   -2.04247300687803    3.57774548644936
C         1.16332135433262   -1.69019715049316    3.95906930690254
C        -0.79098651741253   -2.21694050903919    4.90635521192254
H        -1.95315123954262   -2.15351833028753    3.08342442389084
N         0.54933905940811   -2.00101290642459    5.16178111365130
H         2.21996606693265   -1.52361886948695    3.92050081891395
H        -1.46075097357909   -2.47374885178605    5.70168253437421
C         1.22543452384608   -2.15090920131964    6.35450744026317
O         2.40305948279292   -1.89583654822917    6.46577583051889
O         0.42061514469377   -2.60636834208423    7.30866707054247
C         0.93280403184364   -2.92558831861386    8.63883369526306
C         1.49097994325067   -1.67059319383578    9.30736532526431
C        -0.29765176795496   -3.43545640875112    9.38942539211311
C         1.99298715971748   -4.02184197088128    8.53977124450880
H         0.73705069934717   -0.88656109845228    9.32002179449250
H         2.36362202257803   -1.30974135971226    8.76959948884632
H         1.77776779006945   -1.90334842561864   10.32844074761533
H        -1.05787655742178   -2.66028171266817    9.42928232067282
H        -0.02004393708886   -3.71474455405484   10.40075261822474
H        -0.71085249983075   -4.30240344308825    8.88111124815452
H         2.86578189290993   -3.66013156354481    8.00253539106935
H         1.59046731079299   -4.88487837968444    8.01350485995368
H         2.29502627621414   -4.32471839701495    9.53776138997890
