137
 energy: -185.372258844679 gnorm: 0.000364734835 xtb: 6.4.1 (1a32961)
N        -0.96509999999995   -2.11529999999977   -0.24090000000028
C        -2.24700000000044   -1.69839999999987   -0.36220000000021
C        -3.14040000000018   -2.36820000000003   -1.21200000000038
C        -2.70219999999963   -3.47560000000066   -1.93049999999931
C        -1.37779999999991   -3.89880000000109   -1.78759999999968
C        -0.54290000000008   -3.18670000000042   -0.93510000000028
H         0.49810000000013   -3.45629999999996   -0.78939999999999
H        -0.99569999999982   -4.76029999999981   -2.32769999999995
H        -4.16500000000004   -2.02889999999981   -1.31830000000005
C        -2.62129999999984   -0.50950000000028    0.44100000000004
N        -1.62600000000011    0.07330000000015    1.16020000000001
C        -1.89680000000013    1.15240000000011    1.91690000000016
C        -3.17230000000007    1.70329999999980    1.99650000000019
C        -4.20509999999979    1.11739999999955    1.26270000000005
C        -3.92609999999983    0.00249999999948    0.47819999999985
H        -4.71960000000003   -0.46420000000002   -0.09520000000001
H        -3.34629999999998    2.57510000000016    2.62070000000008
H        -1.04450000000013    1.57420000000005    2.43690000000012
Ir        0.42150000000003   -0.81649999999997    0.91330000000000
H         0.87259999999999   -2.23030000000000    1.54050000000002
B         0.50669999999999    0.41560000000064   -0.81540000000020
O         0.19500000000011   -0.04699999999966   -2.09150000000014
C         0.00649999999993    1.10039999999926   -2.95429999999999
C         0.49020000000050    0.74739999999977   -4.35779999999999
H         1.51609999999982    0.37379999999987   -4.33699999999996
H         0.44729999999997    1.62239999999920   -5.01670000000006
H        -0.14739999999994   -0.03390000000020   -4.78430000000002
C        -1.50120000000035    1.39560000000064   -2.96670000000067
H        -1.75369999999996    2.21459999999946   -3.64850000000024
H        -2.03200000000010    0.49449999999969   -3.28929999999982
H        -1.85170000000000    1.65209999999991   -1.96219999999976
C         0.84229999999987    2.20669999999996   -2.22039999999984
O         0.75200000000003    1.78260000000064   -0.83689999999973
C         2.32930000000027    2.18619999999951   -2.59900000000046
H         2.74129999999996    1.18499999999974   -2.45750000000001
H         2.48869999999994    2.51299999999998   -3.63180000000006
H         2.87200000000023    2.86270000000006   -1.93200000000000
C         0.28440000000003    3.62289999999993   -2.33660000000008
H        -0.72650000000002    3.69039999999994   -1.92910000000007
H         0.92129999999988    4.31480000000031   -1.77610000000013
H         0.26430000000001    3.94809999999989   -3.38319999999996
B         1.56299999999991    0.60960000000026    1.84840000000010
O         2.92779999999996    0.55229999999999    2.15020000000002
C         3.36330000000040    1.88660000000041    2.50259999999951
C         4.53140000000020    1.78589999999975    3.47740000000001
H         4.27909999999998    1.16090000000020    4.33689999999980
H         5.39390000000006    1.33789999999999    2.97339999999997
H         4.82389999999994    2.77870000000001    3.83820000000007
C         3.79700000000000    2.56849999999994    1.19670000000018
H         4.20019999999995    3.57090000000002    1.37680000000012
H         4.56740000000001    1.95560000000000    0.72109999999995
H         2.95240000000001    2.63260000000000    0.50540000000001
C         2.05040000000005    2.50090000000005    3.09319999999982
O         1.03750000000004    1.81620000000001    2.31909999999995
C         1.89100000000001    4.00449999999997    2.88649999999992
H         1.87289999999998    4.25440000000000    1.82409999999981
H         0.94939999999997    4.34260000000000    3.33169999999992
H         2.71080000000008    4.55150000000002    3.36629999999987
C         1.82469999999994    2.13199999999990    4.56519999999996
H         1.92609999999999    1.05329999999998    4.71319999999997
H         2.52610000000002    2.65280000000003    5.22540000000006
H         0.80629999999991    2.41579999999997    4.84899999999993
B         2.27820000000006   -1.33089999999998    0.17409999999999
O         2.89460000000002   -2.57740000000000    0.38450000000002
C         4.26930000000004   -2.48200000000002   -0.07209999999999
C         5.10899999999993   -2.05380000000004    1.14010000000001
H         4.76349999999997   -1.08740000000005    1.51750000000002
H         4.98049999999997   -2.79469999999995    1.93590000000000
H         6.17420000000013   -1.99289999999995    0.89300000000016
C         4.71949999999963   -3.84659999999969   -0.58469999999816
H         4.75280000000019   -4.56129999999995    0.24420000000024
H         5.72329999999969   -3.78369999999995   -1.02009999999967
H         4.03500000000007   -4.23599999999997   -1.34170000000033
C         4.16440000000012   -1.36219999999982   -1.16299999999886
O         3.08519999999997   -0.55029999999993   -0.65399999999962
C         5.40719999999984   -0.48869999999998   -1.31550000000032
H         6.27319999999990   -1.09010000000017   -1.61529999999989
H         5.23300000000001    0.26930000000005   -2.08590000000049
H         5.64269999999989    0.02650000000001   -0.38239999999997
C         3.71800000000033   -1.89830000000010   -2.53110000000108
H         2.82529999999913   -2.52160000000063   -2.42739999999982
H         3.46090000000004   -1.05250000000094   -3.17549999999999
H         4.50570000000004   -2.48289999999992   -3.01790000000005
H        -3.38500000000071   -4.00129999999976   -2.59309999999998
H        -5.21400000000000    1.52079999999972    1.29959999999990
C         0.23589999999981   -1.68139999999992    2.96030000000011
N        -0.91533731948222   -2.10671033629353    3.57426925119339
C         1.16265734014013   -1.42739846846037    3.95188109632427
C        -2.00860587134915   -2.77883178330534    2.91547393332832
C        -0.74074808521177   -2.07049544233457    4.94436062536600
C         0.56055011784374   -1.66158031891181    5.19432780425274
H         2.18063124623254   -1.12722674138391    3.78024811608456
H        -1.61476970674757   -3.41974507762146    2.12292319250492
H        -2.71259726921454   -2.07210495636775    2.47238077745866
H        -2.53281715038106   -3.39766318077853    3.64271834655370
C        -1.66816510065953   -2.44011848868356    6.01821693874369
H         0.99259442468955   -1.54043560714444    6.17231070691731
O        -1.26326242624720   -3.15351097270808    6.93830961745864
N        -2.94776988513297   -1.93136504103766    6.03403373313804
C        -3.81408813191899   -2.33416290034003    7.14030695127519
C        -3.43800556076518   -0.96578974893730    5.06340240338758
C        -4.90289869073693   -3.33127423589191    6.73797088921658
H        -4.26340025123281   -1.44624728366663    7.58833919600448
H        -3.16042955204610   -2.79830280923975    7.88459741189690
C        -4.14320212997458    0.25005651084466    5.67796464254060
H        -4.14310117442551   -1.46023709493758    4.38401565686935
H        -2.58298637418451   -0.61209643688173    4.48815819060656
C        -4.32131620483906   -4.64158442951419    6.20577577839910
H        -5.56614537783398   -2.87965193663275    5.99684663503071
H        -5.49334631482752   -3.53801220993912    7.63674372950662
C        -3.24100973757985    1.08460005003641    6.59385306118384
H        -5.03373081542237   -0.07749816488219    6.21944663709074
H        -4.48753621766458    0.87008681194556    4.84477972315836
C        -5.24972355697698   -5.84291618833953    6.41271921329355
H        -3.38131420065972   -4.84716412796486    6.72815956769457
H        -4.07982021507159   -4.53953320118174    5.14495985209006
C        -2.55076884822540    2.22901354966162    5.85372184945032
H        -2.48736141347306    0.43952817265169    7.05232568168442
H        -3.84180610070681    1.51175135295544    7.40278189636366
C        -6.60980143709011   -5.73194758709023    5.72027491941295
H        -5.41338165982894   -5.97098359092761    7.48762943995625
H        -4.74027973018606   -6.74136502404986    6.05051965380459
C        -1.72172427431982    3.10437973448948    6.79096683270208
H        -3.31579882567676    2.85186061143223    5.37980101845788
H        -1.90942110393937    1.82618486119356    5.06536629279052
C        -6.50910232683319   -5.70518691572678    4.20146789756786
H        -7.12774736636400   -4.83500833194043    6.06949029291379
H        -7.21365892195650   -6.59484816850753    6.01926873461514
C        -1.23531174777272    4.37245243671576    6.10361846809692
H        -0.86458703522581    2.53193090601980    7.16029206150022
H        -2.32970738587515    3.37968494403590    7.65825925898223
H        -5.99248310147113   -4.80988875098559    3.85889423882418
H        -7.50431507977949   -5.71476025007441    3.75507525886545
H        -5.96212181512507   -6.57691435936636    3.84047059810031
H        -0.65252580946483    4.12815469416993    5.21491937138765
H        -0.60728901941004    4.95846776313526    6.77434403444136
H        -2.08038073977629    4.99024386478040    5.79719386546283
