137
 energy: -185.387169398118 gnorm: 0.000367253973 xtb: 6.4.1 (1a32961)
N        -0.99446666948959   -2.15651137444707   -0.27278373041243
C        -2.22551485473794   -1.64638329611713   -0.44985445969691
C        -3.06217948684611   -2.11441322937417   -1.46803586479101
C        -2.62163033591890   -3.11807656400021   -2.30529439023118
C        -1.34805529124696   -3.64134869682878   -2.10712209090067
C        -0.58076555476523   -3.12388042099409   -1.08263464168409
H         0.41498649801964   -3.49832524618575   -0.89079992189617
H        -0.96343160732360   -4.42643263838765   -2.73766417116204
H        -4.03918568260020   -1.68516472988979   -1.61919618146863
C        -2.61392253566173   -0.57248751691393    0.46227324237712
N        -1.63804125075667   -0.05229483590689    1.23484438700987
C        -1.94528960755775    0.92647825823771    2.08063154311215
C        -3.21749855243980    1.44989611372593    2.20796288618485
C        -4.23650754707999    0.91969841150979    1.42341458828773
C        -3.92840387157568   -0.10073147455561    0.54732880982022
H        -4.70584874499335   -0.53931478413663   -0.05602964958695
H        -3.40813041288265    2.24706193107333    2.90703658502792
H        -1.12007149233743    1.30454162375658    2.66513982788323
Ir        0.42149999999861   -0.81650000000117    0.91330000000181
H         0.87260000000046   -2.23030000000086    1.54050000000190
B         0.31710833358805    0.42346543942445   -0.75942124960505
O        -0.25571403946189   -0.11272801964352   -1.89956085134989
C        -0.42991152745299    0.89842571147753   -2.89413130985446
C        -0.07915668296770    0.32752056092455   -4.26597408839356
H         0.90600562935380   -0.12616893475865   -4.25119985459173
H        -0.11257135449012    1.10963876555198   -5.02003182203985
H        -0.80291830041080   -0.44232353717138   -4.52376403790268
C        -1.91417572069574    1.29364385521603   -2.87842626682051
H        -2.13111323114510    2.03876590629509   -3.63797996320281
H        -2.51060164610151    0.40438658479452   -3.07278476325050
H        -2.18804708574232    1.67669545573024   -1.89749538718663
C         0.51070990233180    2.03911509640252   -2.38492972440134
O         0.62651688231834    1.74693807015554   -0.98487652139322
C         1.92194213657972    1.93630858628820   -2.97596098872478
H         2.32718500224865    0.95163907552261   -2.75480958390094
H         1.91762181711401    2.11762320278693   -4.04694510495691
H         2.55767711114633    2.67565318590463   -2.49484724569541
C        -0.02631770157345    3.45530767015064   -2.58158358624635
H        -0.94359793852000    3.61102252470850   -2.02210930107559
H         0.71259621709778    4.16940236907673   -2.22611990469680
H        -0.20990704570194    3.63849409633968   -3.63724455728936
B         1.55721640040798    0.77689560609990    1.61960075822505
O         2.88601269137320    1.05914420120284    1.41722969481492
C         3.17363879029192    2.40303988187142    1.82971151206984
C         4.53841470687634    2.46088523812855    2.51501212764122
H         4.61398561861897    1.71893363569024    3.30272759161474
H         5.31548472511876    2.25596916978001    1.78298989169559
H         4.70346945513518    3.45120506774779    2.93085334091059
C         3.20973622617058    3.25602157862828    0.55617952073043
H         3.40987997984317    4.29951626089185    0.78086274950807
H         3.99665584164226    2.87558657776537   -0.09142873222737
H         2.26409125868726    3.14968987424253    0.03151634164400
C         1.95725109168926    2.74344271318446    2.75610038926544
O         0.97005478057506    1.78618408352495    2.35017148790283
C         1.39218804075114    4.15174918631357    2.58148544905106
H         1.00907195473779    4.28807261600634    1.57576053711586
H         0.57182580107514    4.29676220851426    3.27998788603220
H         2.15984443935313    4.89304371938123    2.78562022437979
C         2.24992433121580    2.48967903065578    4.23993945541186
H         2.65191816453754    1.48998548728325    4.37626720821721
H         2.94435772673773    3.22493092305451    4.63466858249701
H         1.31750720202114    2.54762210884766    4.79558561914024
B         2.27819999999956   -1.33089999999379    0.17410000000592
O         3.21326553272347   -2.08489773248994    0.85059345626573
C         4.44927685439696   -2.11270892394284    0.12748598262497
C         5.38331405750841   -1.10617644666950    0.80755581978383
H         4.89653857383419   -0.13582816453654    0.83307237823458
H         5.54388329419069   -1.42615833500820    1.83404213916746
H         6.34143847940830   -1.04500359336386    0.30077145106596
C         5.06309720080506   -3.50998354758609    0.21760095299130
H         5.31290743880207   -3.71468229800955    1.25530390092893
H         5.96916512232329   -3.55895679538526   -0.37996094813404
H         4.36646094278539   -4.27208950619222   -0.11519240741875
C         4.01532006294830   -1.66893505750616   -1.31356054324516
O         2.74872695616384   -1.03238078702357   -1.08552013120871
C         4.96186043084206   -0.68051665553619   -1.99226317899095
H         5.95767833885948   -1.10753493224061   -2.07319503263510
H         4.59294425600131   -0.46062950776512   -2.99118666810238
H         5.00431997878377    0.24792978601929   -1.43331561767398
C         3.76360913942213   -2.85215034993044   -2.25834119798292
H         3.07219890876680   -3.55522952590100   -1.80222513324827
H         3.30795781949978   -2.47699438579888   -3.17143863303949
H         4.69185873061082   -3.35769512258188   -2.50676264309219
H        -3.25211119421232   -3.48516770533150   -3.10106614734406
H        -5.24669095663868    1.29260710416445    1.49819916060964
C         0.23589999999372   -1.68140000000003    2.96029999995331
N        -0.88167449335672   -2.21570815648110    3.53259160522275
C         1.06213939305563   -1.25036465218815    3.98120521674996
C        -1.89955469053578   -2.96621183671592    2.84997613319389
C        -0.79413519762521   -2.09367343083017    4.90167710371004
C         0.41838534432283   -1.50506389827666    5.19771765124073
H         2.03187323374700   -0.81580729459493    3.84558743078487
H        -1.46643253258469   -3.44569550372187    1.97292005152143
H        -2.72354283327677   -2.32696094410465    2.52169938594050
H        -2.29204802929710   -3.73257955430959    3.51881539753880
C        -1.74769528313061   -2.59209218713451    5.91008030216979
H         0.77307856102392   -1.28163911059137    6.18620406972510
O        -1.35205614485109   -3.37581328794274    6.77619516067549
N        -3.02548248840649   -2.14018924742880    5.89605772598788
C        -3.93415535774760   -2.63374196038415    6.91732357033612
C        -3.48961969271878   -1.09519763377386    5.00563347643146
C        -5.17189322797605   -3.33721193255386    6.36008739917059
H        -4.23653546640114   -1.80842534936804    7.56826844115899
H        -3.35597124791602   -3.33945548826529    7.51904068048146
C        -4.15199036597955    0.08332757570685    5.72761481855991
H        -4.21026340547732   -1.51888416905999    4.29558019305285
H        -2.62964052091756   -0.72200679494848    4.44834116424840
C        -4.81335879619747   -4.56454980300316    5.52351861762689
H        -5.76379962153026   -2.63784903293766    5.76882969401511
H        -5.77586312338024   -3.64925269513650    7.21481846101034
C        -3.19904390967347    0.82496727940513    6.67082904730405
H        -5.02352633343051   -0.26910314632339    6.27890106653235
H        -4.51258214835283    0.77153965269768    4.96120186580227
C        -5.98826525354503   -5.52560020973013    5.33226410305953
H        -4.00771607170917   -5.10634037150094    6.02624513071123
H        -4.43074921735393   -4.24915536673073    4.55159988107229
C        -2.44896195886709    1.95933292997509    5.97564643566525
H        -2.47978045574723    0.11947415165230    7.09303417885697
H        -3.76966421922280    1.24803718742092    7.50121244114193
C        -7.20058726669702   -4.92579172379029    4.61657845059909
H        -6.30716377781408   -5.88348559517543    6.31456258841686
H        -5.63819681394540   -6.39247441676601    4.76611153829307
C        -1.54112198601670    2.72355387954384    6.93800932845645
H        -3.17861981203695    2.65660114579803    5.55495553638708
H        -1.84963031245023    1.55977076009621    5.15476921362507
C        -6.90157053120700   -4.49609233825147    3.18462180110620
H        -7.57677426129534   -4.07264073923933    5.18352439015620
H        -7.99162371351389   -5.67986173684798    4.60040562566833
C        -0.99849926130599    4.00107365021625    6.30753924791213
H        -0.71154931410027    2.08007771035090    7.23896712069726
H        -2.10316591587001    2.98036509138769    7.83961225727905
H        -6.18048618010843   -3.68341486330457    3.16528152217353
H        -7.81136865553868   -4.15519055959504    2.69525375105867
H        -6.49580189040659   -5.32954339023551    2.61478357071946
H        -0.47156190561471    3.77232638216021    5.38399509910130
H        -0.30853174599352    4.50142859918306    6.98301358252887
H        -1.81082516562655    4.68713420463434    6.07575292683307
