110
 energy: -159.065823046205 gnorm: 0.000299485361 xtb: 6.4.1 (1a32961)
N        -0.89565156295358   -2.07360545088629   -0.36861322740703
C        -2.16755666795749   -1.65382864095977   -0.50366539404917
C        -3.03314235676608   -2.26741951700315   -1.41900413381105
C        -2.57919778624906   -3.30577160477578   -2.20210342585828
C        -1.25833389198646   -3.72316633984887   -2.05637105402126
C        -0.46795060027555   -3.07620609016100   -1.12957663608648
H         0.56141024943542   -3.36806844574319   -0.97675430442439
H        -0.86056203483551   -4.53133840633338   -2.64828626287941
H        -4.05286052724448   -1.93435235800077   -1.52157582068813
C        -2.57187988101275   -0.54009562964754    0.34547774545122
N        -1.63040054993786   -0.03762440744728    1.17393462938696
C        -1.96032540443467    0.96957942670388    1.97961272861533
C        -3.21653106556186    1.53957071949630    2.01281590723275
C        -4.19399433039111    1.04493837611554    1.15226960814538
C        -3.86375174322462    0.00115003629464    0.31521431836845
H        -4.60695232268885   -0.39310686539043   -0.35794330971819
H        -3.43099305866722    2.34665534445195    2.69424997551484
H        -1.16533325996404    1.32791836133684    2.61503344711187
Ir        0.42150000000002   -0.81649999999979    0.91330000000020
H         0.87260000000004   -2.23030000000001    1.54049999999995
B         0.34228378094509    0.61183938250498   -0.60793840304215
O        -0.35736379614344    0.30856427500262   -1.76470302267190
C        -0.50919333579872    1.48242651656561   -2.56813366014886
C        -0.34075377212167    1.12496035588434   -4.04279850478898
H         0.57453912277727    0.56373745901305   -4.19941157856599
H        -0.32423847100374    2.02811313523461   -4.64746699261311
H        -1.17725605100554    0.50613497998339   -4.35918479973784
C        -1.93440046294884    2.00439959815383   -2.33275608861020
H        -2.14274853614017    2.87270365993617   -2.95074633501801
H        -2.63972446552028    1.21369888829793   -2.58187567461249
H        -2.07060907755074    2.25864911776101   -1.28331607671834
C         0.58666276168798    2.43456396034325   -1.98780752475037
O         0.77753944058497    1.91640245494720   -0.66449982922539
C         1.93002195002408    2.29282258136742   -2.71385655953485
H         2.23775577773315    1.24996243664676   -2.69330501080869
H         1.86946561580835    2.65380010245814   -3.73653729083792
H         2.67862790030603    2.87088414175412   -2.17705038765583
C         0.19276686667665    3.90876991117569   -1.92235028676339
H        -0.65096711715162    4.06215790649029   -1.25663955335534
H         1.03286447768646    4.48589885683823   -1.54339892427305
H        -0.05961167803258    4.27026295402145   -2.91607959903409
B         1.52994283522185    0.69288732728005    1.82955524705442
O         2.89060267188124    0.88581560571111    1.81134079594118
C         3.21442800828645    2.17690042899224    2.34655032617046
C         4.47989496793033    2.08392615747918    3.19788041139934
H         4.39012674087818    1.30768968553853    3.95036839072214
H         5.32287116138988    1.83770449318125    2.55734243362578
H         4.67454765522704    3.03808033274376    3.68011054735408
C         3.47243822269366    3.09443153688244    1.14523024685042
H         3.70793132068101    4.10720067322554    1.45848808679360
H         4.31072653247667    2.69561799261822    0.57822577381341
H         2.59776828113120    3.08526412532132    0.50007397737138
C         1.91561422697804    2.55908910043579    3.13596270001745
O         0.92797151985586    1.69668879610089    2.55676553148454
C         1.47185845535555    4.01235245604937    2.97626414809054
H         1.22173516168723    4.22355725020594    1.94195715829440
H         0.58619554911473    4.18326720573565    3.58341090022305
H         2.25844962737338    4.68434886008011    3.30862828125227
C         1.99457350957170    2.21610938831823    4.62921136849801
H         2.26151548850742    1.17090676400773    4.75670560115171
H         2.71384222024453    2.84994996988609    5.13877645008498
H         1.01351969682439    2.36602450887845    5.07386536757536
B         2.27820000000060   -1.33089999999871    0.17409999999905
O         3.17847085050618   -2.19290350769568    0.76118324528530
C         4.43698633080424   -2.14207051825717    0.07770164653822
C         5.36832092159397   -1.28425233382028    0.94102137304982
H         4.89567086510743   -0.32275342866087    1.11948828827507
H         5.49746901429207   -1.77675830876916    1.90146201352264
H         6.34036882673412   -1.15659759237538    0.47494671304580
C         5.01214619376415   -3.55409581363014   -0.03565351286827
H         5.21080845363407   -3.93126406493373    0.96404421902328
H         5.94219499237116   -3.53472991091980   -0.59688293741523
H         4.31259943553981   -4.23006231781425   -0.51588875262924
C         4.06600014708423   -1.46400780148255   -1.28960854323306
O         2.78707300670995   -0.87154636112425   -1.01904439481694
C         5.03189288927232   -0.37083748922456   -1.74495909604286
H         6.03406088435460   -0.77393643195171   -1.86144743850424
H         4.69807286705517    0.02186417540770   -2.70219888434964
H         5.04250709280054    0.44468308781466   -1.03015431948013
C         3.87124587727816   -2.46757752389467   -2.43432526868783
H         3.15525139251659   -3.23299625850679   -2.14821155689863
H         3.47009446398819   -1.93868104975968   -3.29564632653084
H         4.81344336762984   -2.93068587379308   -2.71116810160828
H        -3.23476360785761   -3.78385791515550   -2.91410354176214
H        -5.18802046465354    1.46595499260526    1.14081917827174
C         0.23589999999986   -1.68140000000276    2.96030000000121
C        -1.02577595899558   -2.11356229570518    3.34608116714325
C         1.19822473634435   -1.47763360463354    3.94755714092169
C        -1.37057610954674   -2.25074114230919    4.69413900983351
H        -1.75575278005980   -2.37939796974945    2.59344599606134
C         0.87220166129774   -1.61452576253336    5.28681049573824
H         2.20395944499140   -1.21892113775741    3.65444924165337
C        -2.69896650327354   -2.69182291210814    5.08633462937591
C        -0.40520890447224   -1.98417647686736    5.66518029905444
H         1.62175996257038   -1.43812872490937    6.04566879599912
N        -3.79131203487209   -2.54406614436935    4.26317200029580
C        -3.10332480618822   -3.31238039866076    6.24418461293822
H        -0.65931080716970   -2.07440756484774    6.70998639162389
C        -4.89878115479460   -3.04945610447573    4.87481844090579
H        -3.77571614006067   -2.07987718834854    3.37161187791717
C        -4.49627681983016   -3.55587512042781    6.13741600333348
H        -2.47933532386240   -3.58826875094747    7.07078124088120
C        -6.21865356397025   -3.12043510477229    4.44795229653516
C        -5.44607846093943   -4.14694137692022    6.97278230310010
C        -7.13461702880063   -3.70678971831036    5.29611972097428
H        -6.51661475966275   -2.73138376131049    3.48520850750265
C        -6.75170551666217   -4.21448725039688    6.54189489166640
H        -5.15616308180938   -4.54110596320547    7.93587085597607
H        -8.16988932374981   -3.77916513642461    4.99526007370102
H        -7.50190183396345   -4.66835213231069    7.17373448259175
