99
 energy: -148.032690775916 gnorm: 0.000281627433 xtb: 6.4.1 (1a32961)
N        -0.91934877748762   -1.92993690686090   -0.49050077060744
C        -2.12491827737025   -1.36911929258456   -0.69417519221044
C        -2.94745008448207   -1.79495583248166   -1.74253571025789
C        -2.52420308459577   -2.80647068267076   -2.57743863107851
C        -1.27686542689861   -3.37947219617703   -2.35164616049242
C        -0.51969193060445   -2.90249686914404   -1.30150995625024
H         0.45495346642374   -3.31745606673462   -1.08509318497282
H        -0.90654930558132   -4.17539003585445   -2.97704400592389
H        -3.90804213637776   -1.33646375298090   -1.90878974912848
C        -2.50648148785765   -0.30362168259695    0.22754153054466
N        -1.57951259070860    0.07195530017070    1.13545285638386
C        -1.88620074682045    1.03592359478173    2.00221694486628
C        -3.10581937773338    1.68031412026363    2.02439573210501
C        -4.07065426415821    1.30737223649801    1.09299588545823
C        -3.76280163625702    0.31077597849697    0.19138386801180
H        -4.50073951663859    0.00133473036710   -0.52910813851128
H        -3.30152730288147    2.44804215477786    2.75541080979913
H        -1.10246084878923    1.29706178337922    2.69774110324372
Ir        0.42150000000001   -0.81649999999987    0.91329999999997
H         0.87260000000004   -2.23029999999998    1.54050000000001
B         0.42826598008628    0.63890985581346   -0.59310580573843
O        -0.16088811813538    0.35365643400846   -1.81116826942676
C        -0.25232281959317    1.54093383589040   -2.60549144420432
C         0.05337087929653    1.20624058899639   -4.06297866147366
H         0.99130359591828    0.66721910578663   -4.14416887010082
H         0.10069874299294    2.11677782266100   -4.65467908970189
H        -0.73820527476274    0.57197470601583   -4.45490020347387
C        -1.69814677374509    2.04623164642076   -2.49642850675384
H        -1.85338916757457    2.92521699774307   -3.11485442804377
H        -2.36805738953085    1.25514976440110   -2.82747255446369
H        -1.93715007148394    2.27854227183694   -1.46040409855817
C         0.77514324281423    2.49163595702579   -1.91011267184227
O         0.84494437049651    1.95093552024788   -0.58194873779421
C         2.17956078466864    2.37091518917424   -2.51385843556425
H         2.49769653304713    1.33224626001867   -2.46393971418615
H         2.20200333384123    2.73062285689214   -3.53849306066796
H         2.87092920344757    2.96045783985142   -1.91683668703584
C         0.36436842327790    3.96164284357754   -1.85708944986127
H        -0.53983202013317    4.09875928774437   -1.27204657873163
H         1.16023388614804    4.53783932829320   -1.39119326396875
H         0.20450786031676    4.33773196230116   -2.86439312136012
B         1.60420148621837    0.63527863349854    1.84689954550676
O         2.96001105323466    0.81979209423261    1.75955720081890
C         3.32341739998774    2.08588466527558    2.32985531197139
C         4.63801233263695    1.95091939062843    3.09711591976274
H         4.59615294964454    1.12529564187452    3.79848229858071
H         5.44141979512218    1.75440149373437    2.39181519497620
H         4.85781066942060    2.87335734273773    3.62796450497979
C         3.51604128927733    3.05838121895941    1.16094148123132
H         3.79232342027804    4.04942014075247    1.50889420690917
H         4.30487968817508    2.67416209309226    0.51821474648113
H         2.59920702072433    3.09666509764921    0.57955990928265
C         2.07486232950958    2.43560548855060    3.20841915007983
O         1.04506848814892    1.61698848738643    2.63519565372254
C         1.64347530411840    3.89978521569294    3.16509187016674
H         1.34257150293138    4.18103643188088    2.16149712497072
H         0.79303124385587    4.04011281982266    3.82787002732222
H         2.45654951436658    4.53949513873356    3.49767952786901
C         2.23794852154533    1.98974951483114    4.66592063613094
H         2.49133872216805    0.93431729735421    4.68070731879877
H         2.99954597116568    2.57285578669176    5.17421656478846
H         1.28917231990221    2.11739689138331    5.18239814473694
B         2.27820000000124   -1.33090000000027    0.17410000000182
O         3.09479969684757   -2.32362982086247    0.66954349909838
C         4.37818327539288   -2.27733300400707    0.03257687395739
C         5.32685299207729   -1.58423396808050    1.01650241451011
H         4.91051088385675   -0.61653753774179    1.28119839118662
H         5.38091672667414   -2.18511659462648    1.92068781828528
H         6.32412975680219   -1.47621721485908    0.60136306995791
C         4.86906182848122   -3.70118653073372   -0.22943435393825
H         5.01230817931565   -4.20274535818690    0.72406788206068
H         5.81576786244343   -3.67797573226806   -0.76189207651945
H         4.14490657558497   -4.27090275726858   -0.80222992388792
C         4.09610468887179   -1.42411378568326   -1.25404943968876
O         2.85827869054570   -0.76771452703729   -0.93905400324088
C         5.15610041915000   -0.36896866887901   -1.56577728000084
H         6.12786130116919   -0.83675992937627   -1.69691889673352
H         4.88765250740610    0.14633826240588   -2.48463793943993
H         5.20275113581326    0.36327893237953   -0.76725346177243
C         3.85105796335938   -2.27686237465279   -2.50630056577495
H         3.06905645544288   -3.00685362667546   -2.31637231560534
H         3.51285270393770   -1.62614528887710   -3.30911608467233
H         4.75976955711317   -2.78212169508329   -2.81912855960089
H        -3.15001531496064   -3.14555663273515   -3.38900349606983
H        -5.03953994856157    1.78274756653970    1.07784162567123
C         0.23589999999926   -1.68139999999917    2.96029999999914
C        -0.95169029638208   -2.26513697937253    3.45793080790099
N         1.19977906183765   -1.36834261806324    3.81574461461786
C        -1.21685693221411   -2.41213151880304    4.80481722221681
Br       -2.28017405765052   -2.98173405464950    2.27618524345441
C         0.98203517062591   -1.53562839933920    5.11071691833820
C        -0.21936542291112   -2.02158668285894    5.69290963364507
H        -2.14616490549721   -2.84434137601622    5.14737031656565
N         1.85798915363234   -1.29045367900914    6.12003064999485
C        -0.01523266213015   -2.04062374317817    7.09913983158941
C         1.25484604027634   -1.59652809999499    7.31175586294610
H         2.80633166122808   -0.97769995298689    6.00337812056703
H        -0.72110747168836   -2.35332390060961    7.84233850171344
H         1.78344831452265   -1.47294876124280    8.23669093163133
