99
 energy: -143.974902749547 gnorm: 0.000178091928 xtb: 6.4.1 (1a32961)
N        -0.90830488326963   -2.01814455986316   -0.38462350819273
C        -2.15778311474715   -1.54611301998068   -0.55728175167774
C        -3.03104745780497   -2.14378578785229   -1.47589999595342
C        -2.60839506356583   -3.21797194915046   -2.22703327377308
C        -1.30873130329642   -3.68620850842319   -2.04714458388844
C        -0.51024556092474   -3.05468667794175   -1.11730824107506
H         0.50181060275361   -3.38898842831542   -0.93757097808249
H        -0.93424551329423   -4.52316746674904   -2.61372332172539
H        -4.03429245456671   -1.77137012774271   -1.60175572097334
C        -2.52935146026096   -0.39114414724573    0.24927540108810
N        -1.59706329275435    0.06720954339040    1.11234953244304
C        -1.89528225587719    1.11746103595516    1.87437367911502
C        -3.10595149988870    1.77686422678855    1.82426231298493
C        -4.07091125245585    1.32846795571056    0.92553887970480
C        -3.77508347526383    0.23891664623233    0.13576477044751
H        -4.50825700437999   -0.11979973204450   -0.56737420649006
H        -3.29489074811686    2.61825725550267    2.47117256523136
H        -1.11213031832664    1.43579094101204    2.54506232599892
Ir        0.42150000000000   -0.81649999999994    0.91329999999999
H         0.87259999999995   -2.23030000000001    1.54049999999995
B         0.39973243026944    0.62730083540447   -0.59671305056371
O        -0.25153434211640    0.35351383550254   -1.78547890069660
C        -0.33095829107318    1.53767181345329   -2.58611121362149
C        -0.08609348145227    1.18406223573996   -4.05086057096063
H         0.82672818243621    0.60742461381395   -4.15762450409154
H        -0.02009727329236    2.08936975856176   -4.64879996743231
H        -0.91398679730988    0.58114353906333   -4.41658273149502
C        -1.75391533341806    2.09293631588113   -2.42964209512702
H        -1.90305820068720    2.96994295742592   -3.05246722450366
H        -2.46297898093392    1.32232727438383   -2.72581857390609
H        -1.94592898668979    2.34484582007786   -1.38841590334549
C         0.75220882098526    2.46011300338028   -1.93720402504315
O         0.86076288168748    1.92419399460768   -0.61100230248609
C         2.12931038689481    2.29655442633393   -2.59183258391012
H         2.41495728269631    1.24791713655425   -2.56014835166562
H         2.13014050259259    2.66374073177773   -3.61407664098427
H         2.85922092276318    2.85784234839996   -2.01319033528897
C         0.38777015108574    3.94206770356484   -1.87629601474447
H        -0.49065665267789    4.10819840691598   -1.26041089280060
H         1.21668703500873    4.49498806223465   -1.44076042690630
H         0.20389650496329    4.32047603561428   -2.87867054871060
B         1.56070680909634    0.65960122384243    1.85899318679399
O         2.91897929812254    0.85339638834805    1.79243798568385
C         3.28022789963886    2.10553778480707    2.39033823810019
C         4.54023188494247    1.92201952351155    3.23622029348076
H         4.41439224757469    1.11147026652679    3.94625805628891
H         5.37367419219615    1.67392420560021    2.58405382332954
H         4.77314455920050    2.84102622439427    3.76687808687847
C         3.57563053121703    3.06988443634192    1.23537304390784
H         3.83079316991891    4.06146093940726    1.59673706082913
H         4.41209420889406    2.67669101762612    0.66176642589033
H         2.71009080938539    3.11167230723025    0.57972434447800
C         1.99457437040112    2.49155588483174    3.20332771090851
O         0.99052138772266    1.63468130382063    2.64471130184982
C         1.55010161540019    3.94577780363709    3.04653491009942
H         1.29805173065574    4.15930477430320    2.01317914570370
H         0.66482743792497    4.11324776614878    3.65525881570445
H         2.33571841284673    4.61797213085401    3.38034406864838
C         2.09256418693176    2.15787867612528    4.69686452778578
H         2.35616497396972    1.11298265161490    4.83083013764970
H         2.82373003770208    2.78862484209230    5.19288818224579
H         1.11907012992299    2.31892933460518    5.15411442856084
B         2.27819999999956   -1.33089999999812    0.17410000000106
O         3.16995493086821   -2.21363774131669    0.74720746375582
C         4.41992297043233   -2.19281359109050    0.04596332114164
C         5.38428899276403   -1.35305306719636    0.89115132759815
H         4.94113796129267   -0.37692301306317    1.06761140098844
H         5.51664164853928   -1.84199232575746    1.85343093074471
H         6.35254161308205   -1.25380773484588    0.41069447737879
C         4.95970011533747   -3.61816240173611   -0.07090164285889
H         5.17040815573734   -3.99517086851393    0.92646820030128
H         5.87782349085989   -3.62370569187064   -0.65156846032212
H         4.23437335231493   -4.27958617730129   -0.53270918008683
C         4.04200386262652   -1.50998058719231   -1.31569255336091
O         2.78794078869672   -0.87551392456705   -1.01996523273855
C         5.03624406702023   -0.45534333143256   -1.79897843548719
H         6.02275026956300   -0.89384423159541   -1.92120050055925
H         4.70511922031365   -0.06603178479879   -2.75845008634270
H         5.08358693395250    0.36970966204929   -1.09663564626342
C         3.78611543452156   -2.51403889676069   -2.44759384929590
H         3.05548603900907   -3.25534312374188   -2.13612442859641
H         3.37640270492781   -1.97852520437961   -3.30070534255707
H         4.70601673534317   -3.00684578300259   -2.74703342032012
H        -3.27112102910055   -3.68478608824171   -2.93981017430870
H        -5.02843059523346    1.82099874351595    0.84768088253391
C         0.23589999999928   -1.68139999999825    2.96029999999985
C        -1.07426687253594   -1.96696495144435    3.31914325160604
C         1.18691598019745   -1.63360423542360    3.99236242769390
C        -1.47388982747076   -2.06648251748057    4.65138684022881
H        -1.82767734853924   -2.11836982243306    2.55889957658446
C         0.76598274790641   -1.74289160577027    5.33343269828058
C         2.60884068981204   -1.51605848420050    3.89908135770076
C        -0.56232569064262   -1.93787846971032    5.67892373386802
H        -2.51359167880594   -2.25422614182612    4.88017601893353
S         2.11372010849764   -1.65805130527162    6.43710947103131
C         3.21850801074339   -1.51819413361314    5.10025327164288
H         3.10800620508804   -1.44599571073784    2.95169833971982
H        -0.85993949810969   -2.01182842819453    6.71343346783264
H         4.26600679093421   -1.45052503114533    5.32178466861055
