18
 energy: -31.320082439814 gnorm: 0.000284577445 xtb: 6.4.1 (1a32961)
C         0.90168191232794    1.45234857607465   -0.00064402111467
C        -0.27975195129123    0.72875859918949   -0.00003725375818
C        -0.29598147468832   -0.68952568085574   -0.00003234782666
N        -1.59793197024198   -1.12539248753540    0.00067431393690
C        -2.33646205090204   -0.05351592199292    0.00107515057526
N        -1.59617964237814    1.10067200287372    0.00067488055706
C        -3.81789545888858   -0.03371060566832    0.00177638316794
C         0.89528837130168   -1.40590056038870   -0.00065852886800
C         2.07771695232861   -0.69397136410327   -0.00124675934428
C         2.05629857097418    0.69821469077327   -0.00122638563841
F         3.25150091699226    1.35486550412898   -0.00183719512772
H         0.93744587689652    2.52943201220914   -0.00067309095596
H        -1.95422798349601    2.04123995673292    0.00087976843702
H        -4.18480946877296   -1.05491942469508    0.00237909191152
H        -4.19001561888566    0.48234655587697   -0.88200592169536
H        -4.18922691153964    0.48314748790433    0.88541652358673
H         0.88893805040269   -2.48304560319421   -0.00067176306884
H         3.03170187986068   -1.19671373732983   -0.00174284477433
