96
 energy: -137.999499227433 gnorm: 0.000190850234 xtb: 6.4.1 (1a32961)
N        -0.88711698656166   -2.05515195857783   -0.35714484059452
C        -2.14804715678664   -1.61215798926037   -0.53204263791096
C        -3.03194610364924   -2.27752381531757   -1.39313815734701
C        -2.60862118947801   -3.38738139652216   -2.08870427649833
C        -1.29638377798004   -3.82359014180142   -1.91107154981675
C        -0.48863204188813   -3.12747519941594   -1.03808172029261
H         0.53226496073085   -3.43626014706631   -0.86152097176862
H        -0.92073837329680   -4.68663972289871   -2.43645643666447
H        -4.04516439791778   -1.93037211020462   -1.51278203634253
C        -2.51926898876996   -0.42102595286038    0.21530828168768
N        -1.59459183221846    0.06360411939600    1.07509359531211
C        -1.89550443542188    1.15160975522979    1.78387533604056
C        -3.09639226046168    1.82145042232904    1.68218298317071
C        -4.05164824305639    1.34539846824052    0.78561735018540
C        -3.75482565888943    0.21896720464934    0.05091611433734
H        -4.47616592784820   -0.15952100641204   -0.65444798323694
H        -3.28616724840344    2.69415405930368    2.28604357018560
H        -1.12015779046546    1.49157675326830    2.45313965272598
Ir        0.42149999999990   -0.81649999999996    0.91330000000003
H         0.87259999999998   -2.23029999999999    1.54049999999999
B         0.42996007281733    0.59576699860262   -0.62072703924571
O        -0.18810022543273    0.28530929922307   -1.81890635220423
C        -0.25878207189039    1.44733829536669   -2.65084887363807
C         0.03181463378532    1.06023915768609   -4.09889384923732
H         0.95707362640484    0.49763166981289   -4.16636031672666
H         0.09806931003307    1.95061668320868   -4.71896674410969
H        -0.77528263471921    0.43287169748144   -4.46999704149864
C        -1.69287336755563    1.98708871168550   -2.55011581705635
H        -1.83539004081138    2.84574541699341   -3.19954793998194
H        -2.38287386001041    1.19918062356627   -2.84639098858485
H        -1.91857447326809    2.26284399283282   -1.52178293727047
C         0.79415916623426    2.40026587410457   -1.99561748370519
O         0.87675598401322    1.89748585589396   -0.65535645572701
C         2.18983059911655    2.24328392242606   -2.61162114979907
H         2.49144518505437    1.20077562971325   -2.54484939837241
H         2.21079785186424    2.58426544563734   -3.64278321055273
H         2.89585872794231    2.83059680344303   -2.02912331921027
C         0.40665059443508    3.87764750066968   -1.97788810168090
H        -0.48819785192289    4.04427798630940   -1.38620969637636
H         1.21674054159333    4.45265657534625   -1.53560813129535
H         0.24092707452859    4.23031561152223   -2.99276691734989
B         1.54920690393041    0.65048280104704    1.88202309727155
O         2.92091302175436    0.78073612925228    1.90623809892958
C         3.28704998846443    2.05959469320879    2.44205582550934
C         4.52519400916711    1.91731424777255    3.32586615480479
H         4.37863255588633    1.15610663821537    4.08470849979449
H         5.37096633868654    1.62293192973665    2.70970079651253
H         4.75345393521045    2.86731886620710    3.80161219985222
C         3.61300646167850    2.95646211853092    1.24144345129213
H         3.88476674863633    3.96054879175924    1.55340794161982
H         4.44592907721112    2.51725390281414    0.69674968052798
H         2.75406299923113    2.98014504133157    0.57560671564677
C         1.98662245806571    2.50113035875766    3.19534690627991
O         0.97648781566804    1.68666900566770    2.58591220636386
C         1.61672117190069    3.97377142635867    3.02570410872250
H         1.40655945623521    4.19699906934867    1.98492234216171
H         0.72329277600512    4.18677764407467    3.60760389972598
H         2.42497430782005    4.60694566177553    3.38155724288018
C         2.00643937856442    2.15085313285949    4.68878525055132
H         2.20782162203013    1.09122629345673    4.82073169929847
H         2.74777152160089    2.74039950247461    5.21930133037640
H         1.02481776454532    2.35844898780012    5.10831194294903
B         2.27820000000018   -1.33089999999922    0.17409999999995
O         3.09479037092259   -2.31712103217719    0.68945906329964
C         4.38218518207618   -2.27406257819428    0.06277051072688
C         5.31396273964699   -1.53436362631631    1.02890719867199
H         4.88949275228750   -0.55895058938179    1.24904613853492
H         5.36175219000399   -2.09518584692893    1.95878457510780
H         6.31520554588406   -1.43584927401381    0.62110090106274
C         4.89683370102851   -3.69708453691454   -0.15104402551386
H         5.05607256914227   -4.16132939126407    0.81849942528838
H         5.83965691404075   -3.67604218275562   -0.69044812241547
H         4.17952976708741   -4.29922669645741   -0.69869038556608
C         4.09738336813311   -1.46509964140752   -1.24988333201831
O         2.86784144511718   -0.78827382734823   -0.94586628102276
C         5.16592967365240   -0.43507439006291   -1.61091212142185
H         6.13180280485625   -0.91908461071221   -1.72643757424969
H         4.89908689355857    0.04444130667302   -2.54940652324428
H         5.22673496084350    0.33015944522887   -0.84492294273949
C         3.83192585866016   -2.36337934203393   -2.46587308055430
H         3.05116717079444   -3.08361502611701   -2.23674777408998
H         3.48330916864146   -1.74274198896480   -3.28801730684637
H         4.73469290979003   -2.88270978507135   -2.77295632785546
H        -3.27892917675641   -3.90776565022588   -2.75581230697803
H        -5.00028150133373    1.84695615405235    0.66691404568998
C         0.23590000000066   -1.68139999999975    2.96030000000075
C        -1.01982829787607   -1.79819654299806    3.52233646020179
C         1.11594183576691   -1.81383966940059    4.06571391989497
N        -0.85404467189167   -1.94143413434895    4.85828635114583
H        -2.00036319839041   -1.78960807680165    3.08888498891430
C         2.60113408661754   -1.86463169713277    4.03807882048212
N         0.44040097191845   -1.95204878470356    5.19556148485743
H        -1.55521237954278   -2.02216043926344    5.57687951723233
H         2.92340292181810   -2.82371574301922    3.63554777743004
H         2.99619159532870   -1.75109733548263    5.04429344501990
H         2.98305814147828   -1.09176342211138    3.37763113302007
