12
 energy: -16.996524178671 gnorm: 0.000288814914 xtb: 6.4.1 (1a32961)
C        -1.58864643584210    0.16310506926154    0.00767287489312
S        -0.15533096389976    1.11831193042588    0.01595214180313
C         0.84362523021648   -0.30302898389491    0.00836498660765
C         2.32885844564894   -0.19030309119489    0.01124393913557
C         0.07970278453612   -1.42841065566503    0.00075218131701
C        -1.31023112782810   -1.16346098221751    0.00141870617718
H        -2.54312265906068    0.65087154051162    0.00909841527211
H         2.63096339802467    0.85351746737827   -0.00240176002879
H         2.74914013934876   -0.68863878404842   -0.86203188551542
H         2.74451312721277   -0.66311912240897    0.90091808283605
H         0.49471567771133   -2.42115671965760   -0.00475692868490
H        -2.06434761606843   -1.93062766848998   -0.00413075381270
