101
 energy: -154.402563400060 gnorm: 0.000314890903 xtb: 6.4.1 (1a32961)
N        -0.84686776355270   -1.99738983741594   -0.46929298702044
C        -2.10776092889762   -1.56207195404516   -0.61509911841621
C        -3.00210443008928   -2.21823788676117   -1.46871847121009
C        -2.58408345642874   -3.32144696154677   -2.18143227202863
C        -1.27022750724733   -3.75070573791843   -2.03165060599966
C        -0.45087831329229   -3.05514613665268   -1.16558986175522
H         0.57560237868866   -3.35567399577212   -1.01197405289364
H        -0.89933592225908   -4.61053308147142   -2.56521371467142
H        -4.02140438142824   -1.88087320427519   -1.56205527103117
C        -2.49327282359597   -0.39558419668906    0.17473150382893
N        -1.61050868523228    0.03030418657990    1.10034338803383
C        -1.94449030234284    1.05803883267699    1.87786668378389
C        -3.14258084509304    1.73506757472210    1.77332108219714
C        -4.04430655766927    1.33707536296405    0.79188453503732
C        -3.71360010987940    0.26319650091710   -0.00819460674626
H        -4.39681273257033   -0.05614877082677   -0.77746619662676
H        -3.36380036364127    2.55476160704715    2.43710316144918
H        -1.19938423452873    1.34950189239749    2.60247665243462
Ir        0.42150000000014   -0.81649999999995    0.91329999999992
H         0.87260000000004   -2.23029999999998    1.54049999999987
B         0.45931231199920    0.64867685916600   -0.57749767425852
O        -0.25623232143964    0.45254143147047   -1.74169950879660
C        -0.25223362349428    1.65102309331405   -2.52861849240966
C        -0.08735526859085    1.29522101157459   -4.00380408758664
H         0.77103290834111    0.64822291406330   -4.14943813893117
H         0.03050145551815    2.19950887976189   -4.59486708650394
H        -0.97377625810242    0.76576096748729   -4.34450848656525
C        -1.61354668382835    2.32860868829161   -2.31873363073096
H        -1.70091469006645    3.22823117037020   -2.92033451309613
H        -2.39715160313514    1.63101898901726   -2.60729214229940
H        -1.75124964306239    2.57325624482617   -1.26746342685125
C         0.93212395722050    2.46243356494050   -1.90709191670260
O         1.04374725985333    1.89042953105050   -0.59384925413540
C         2.26525875039795    2.19339481223728   -2.61443849491846
H         2.45698890323295    1.12334942888961   -2.61658532186905
H         2.26363099486631    2.58495472083112   -3.62724847564699
H         3.06118687522009    2.67294724857840   -2.04975144769683
C         0.70050575315821    3.96808206048191   -1.80145271543649
H        -0.13133200315122    4.19293441890977   -1.14126386289320
H         1.59293913551951    4.43761731731032   -1.39489954895535
H         0.50463535390621    4.38393405842949   -2.78630913419884
B         1.52462490114534    0.65584641208058    1.90432141900745
O         2.88683266017801    0.78274117943604    1.95226632015712
C         3.25332147632626    2.04649467901011    2.52753149470869
C         4.44081695121161    1.85256360132414    3.46930009508179
H         4.22901335217084    1.09509033288489    4.21604879050915
H         5.29964701010083    1.52417203516764    2.89003400577608
H         4.68589845605044    2.79018004026242    3.96031491744364
C         3.66947700212597    2.94933034223910    1.36019720196501
H         3.92741358957889    3.94781831422691    1.69920889667021
H         4.53573532588942    2.50741640915153    0.87337377806343
H         2.85942214086168    2.98626934288526    0.63693431145375
C         1.92521328289915    2.51135318556691    3.22253931742344
O         0.93079444858678    1.67844842933706    2.60543842009421
C         1.55859727513198    3.97602206629760    2.98909060075689
H         1.40211014883490    4.16542480549410    1.93253141397040
H         0.63424318479707    4.19835456750343    3.51633556412392
H         2.34267685634240    4.62530679591056    3.36806506676745
C         1.89034246385504    2.21520315803722    4.72688523787218
H         2.08028662899828    1.16033895172277    4.90529664499436
H         2.61665663041968    2.81997099256268    5.26059344760790
H         0.89649520917851    2.44295052292102    5.10527253128790
B         2.27820000000117   -1.33090000000054    0.17410000000118
O         3.19184476418238   -2.11972097083882    0.83345396099549
C         4.42819942952660   -2.16495346905887    0.10608506605609
C         5.38798264027944   -1.20248235482294    0.81262169051938
H         4.92271343121460   -0.22306724947500    0.87329636297163
H         5.54687840123192   -1.55906219215080    1.82694807698250
H         6.34402996904648   -1.14626995444619    0.30186132133477
C         4.99837835800487   -3.58182122435821    0.15939681766704
H         5.25017529291522   -3.81922962159188    1.18944814858524
H         5.89703534212751   -3.64576636577737   -0.44742307723887
H         4.27473086985242   -4.31313708406858   -0.18473796439125
C         4.00538259589999   -1.67243137950707   -1.32257261412265
O         2.75201018316652   -1.00964301084884   -1.07493525442606
C         4.97420940375514   -0.68812878160501   -1.97431088420510
H         5.95902380788575   -1.13701031160997   -2.06751688186365
H         4.61041286857274   -0.43376510421942   -2.96652797333448
H         5.03897914803433    0.22428385959156   -1.39185110010272
C         3.72310997850609   -2.82112806102729   -2.29964636392827
H         3.01897251848050   -3.52385582140183   -1.86272282895371
H         3.27237636778638   -2.40919013163711   -3.19917613732739
H         4.63917942531379   -3.33879085909593   -2.56685938699554
H        -3.26602198202752   -3.84192509194333   -2.83650856554600
H        -4.98249691367995    1.85371697897847    0.65768514422046
C         0.23590000000159   -1.68139999999917    2.96029999999902
C        -1.04123551528585   -1.99310074107786    3.45954114417860
C         1.25869524971113   -1.53875928213832    3.91231700376549
C        -2.19284882452753   -2.36549350168738    2.60849319027039
C        -1.19190200556041   -2.03453047914844    4.84881280809011
C         0.97261743950090   -1.60133262705460    5.25687199207074
H         2.26720082276742   -1.37186623671861    3.57113455248538
O        -2.14294117046019   -3.16731930559528    1.70045678231444
O        -3.31754100050281   -1.75748041121249    2.99856186832461
F        -2.40109021802008   -2.35068099422198    5.37295286111173
N        -0.25225003428232   -1.84104909459906    5.73187491416595
H         1.72923870701957   -1.46857156568701    6.01727274695388
C        -4.54124915122754   -2.12750204426647    2.36828212711284
H        -5.09511628724668   -2.78283275503330    3.04192695795001
H        -4.33473609680544   -2.64520479501246    1.42993512296944
H        -5.09855705476790   -1.20998639681971    2.19149025273886
