96
 energy: -143.974273990854 gnorm: 0.000657877932 xtb: 6.4.1 (1a32961)
N        -0.98542216408206   -2.01511353990997   -0.32287306055245
C        -2.21427493502191   -1.49572298753249   -0.49677094914020
C        -3.11164053214992   -2.06212542800370   -1.41027828577993
C        -2.73321401673207   -3.16134892610942   -2.15087154409504
C        -1.45625601730309   -3.68296781946704   -1.96480138005326
C        -0.62942364823752   -3.07496679724346   -1.04235886370892
H         0.36798779188119   -3.44849729680898   -0.85848743229566
H        -1.11698386185637   -4.54079316401128   -2.52200802358182
H        -4.09684994174576   -1.64708744169620   -1.54294165326005
C        -2.53880755994016   -0.32130563713080    0.30739221591890
N        -1.57576664953919    0.12108263771066    1.14278403964965
C        -1.82560716104270    1.18577615473329    1.90129753725680
C        -3.02195159373630    1.87422308791972    1.87609785796067
C        -4.01952126136753    1.44069547099699    1.00787914573169
C        -3.77147938042250    0.33636116559513    0.22008938792245
H        -4.53214694976436   -0.01103775716260   -0.45881848835770
H        -3.17311149637820    2.72581261318695    2.51926618898237
H        -1.01752807083516    1.48911335376403    2.54927460972351
Ir        0.42149999999995   -0.81650000000001    0.91330000000012
H         0.87260000000003   -2.23030000000002    1.54049999999988
B         0.40250564337684    0.55947717671633   -0.64429073453925
O        -0.10029924617003    0.19193530305207   -1.87656268200828
C        -0.20575407128020    1.34113915301942   -2.72568552593463
C         0.23144700288007    0.97218588865233   -4.14089536621950
H         1.19504918609961    0.47415639343548   -4.12317098191444
H         0.28943815840289    1.86305297193203   -4.76063349166599
H        -0.49587519844997    0.28968964878650   -4.57357678217007
C        -1.68445902163461    1.75406506976904   -2.74161432281171
H        -1.84979823877322    2.59312023815658   -3.41085186362810
H        -2.27780125747109    0.90704451596494   -3.08006298940424
H        -2.01145376908376    2.01528257250878   -1.73705924245775
C         0.70767963214634    2.38362214368788   -2.00074361821787
O         0.72214644973592    1.89731389436255   -0.65016575142278
C         2.15646888683169    2.33662140894171   -2.50043825398256
H         2.53685223951165    1.32446325163968   -2.38557632535643
H         2.23078205832211    2.66178485458866   -3.53398591090147
H         2.76162817376752    2.99158269771043   -1.87862474250490
C         0.20001789272422    3.82337181969152   -2.03382447989500
H        -0.75487597815119    3.91826939469165   -1.52629606282879
H         0.91750750739015    4.46518388024376   -1.52836710931097
H         0.09764989179605    4.15636570733289   -3.06342654159430
B         1.62531050977831    0.63151188087377    1.83205069724887
O         2.94390434731929    0.92862916218853    1.62602628038823
C         3.29682293263185    2.14884630069289    2.29298232639694
C         4.66608119088777    1.99161713321560    2.95412861442870
H         4.69322978739713    1.10979755037154    3.58603664651947
H         5.42230499816109    1.87612988393350    2.18172633031756
H         4.90189990676495    2.87282282158030    3.54430945042784
C         3.37653098661187    3.22945500060905    1.20842918371700
H         3.60801062043570    4.20252245007854    1.63105494272908
H         4.15786524608379    2.95292260288588    0.50421813043164
H         2.43447261418156    3.26054821257910    0.66751720419032
C         2.10354299253917    2.36372811445941    3.29032550114642
O         1.09296086766733    1.48391379101521    2.77686278516592
C         1.54668669109308    3.78682094192262    3.32989811489160
H         1.14978966292406    4.07138786273094    2.36106132347663
H         0.73901274497974    3.83024248058107    4.05673683787202
H         2.32262811077336    4.48600891361112    3.62863754109085
C         2.41859274773802    1.91286062211851    4.72194548133928
H         2.78314047516240    0.89053993498803    4.72077038307164
H         3.15654622642764    2.56316380206824    5.18149692984701
H         1.50324503443443    1.94715300117147    5.30878271185781
B         2.27820000000027   -1.33090000000027    0.17409999999990
O         3.06443344541214   -2.34894177016842    0.66834858782338
C         4.37491228864795   -2.28558556155464    0.09036080075297
C         5.27576471207753   -1.62276975221787    1.13754849219604
H         4.86010260180943   -0.65309295262370    1.39534041289647
H         5.26653187219292   -2.23602005549386    2.03519779971407
H         6.29685455839471   -1.52315658731553    0.78315764994057
C         4.87615404866132   -3.70147675376729   -0.19200341187813
H         4.97911217077409   -4.22996944669655    0.75212135152116
H         5.84481331558924   -3.66369115948421   -0.68215327485874
H         4.17693731054888   -4.25253284896860   -0.81213188772044
C         4.15033402599428   -1.39162437833971   -1.18015979602200
O         2.89959971249090   -0.74369897775427   -0.89993289750460
C         5.22105800833909   -0.32595326441157   -1.40761879001569
H         6.20103711228337   -0.78603656612190   -1.49735831063926
H         4.99938814398772    0.21229949609390   -2.32577858947837
H         5.21870607045241    0.38443675269120   -0.58831793804587
C         3.96225860537008   -2.20280006991126   -2.46906723138388
H         3.16783167940890   -2.93285684749078   -2.34108907141570
H         3.66839734484265   -1.52393021485500   -3.26606093575779
H         4.88295250384748   -2.70341320158057   -2.75249265974392
H        -3.41434984676443   -3.60566771911951   -2.86046718872667
H        -4.96701909553629    1.95457079845921    0.95092588466420
C         0.23590000000033   -1.68140000000017    2.96030000000000
C        -1.05791073415420   -2.02523485375650    3.35658012091797
C         1.17108520356586   -1.59300781342202    3.98496150107993
C        -1.41426815250223   -2.17092774948537    4.68730967741715
H        -1.82148982011993   -2.18593714429753    2.61009239901091
F         2.48040544870943   -1.37029527962782    3.69641216645540
C         0.85907418677704   -1.73403972094907    5.32539895173124
C        -0.45166838663839   -2.01028824155842    5.66494388873711
H        -2.43174200479850   -2.41383319904068    4.95308863668706
H         1.63460708177152   -1.63486415241136    6.06879107399407
I        -0.98095203965889   -2.21512123208686    7.70777424662937
