11
 energy: -16.158200654948 gnorm: 0.000447608479 xtb: 6.4.1 (1a32961)
C         1.43754247163528    0.05172322080386    0.00119663780707
C         0.68848898671800    1.21845504956201    0.00080422472104
C        -0.69467756091559    1.11075649123723    0.00314955919129
N        -1.33480833195994   -0.04755143545216    0.00573504602207
C        -0.61349619861852   -1.15714420336435    0.00605376059871
C         0.77383752130271   -1.16557437378960    0.00398187007155
H         2.51723738276986    0.09013757210363   -0.00067578400399
H         1.16361205283436    2.18709870645901   -0.00160465435476
H        -1.32548982073991    1.99049278814453    0.00255603508213
H        -1.17976015584823   -2.07970157888460    0.00888718998893
H         1.31691365282196   -2.09778223681956    0.00471611487595
