106
 energy: -152.183385733654 gnorm: 0.007904510956 xtb: 6.4.1 (1a32961)
N        -0.96509999999998   -2.11530000000000   -0.24090000000001
C        -2.24700000000004   -1.69839999999991   -0.36219999999998
C        -3.14040000000002   -2.36820000000002   -1.21199999999979
C        -2.70220000000006   -3.47560000000009   -1.93050000000001
C        -1.37780000000000   -3.89879999999997   -1.78759999999988
C        -0.54290000000001   -3.18669999999997   -0.93510000000010
H         0.49810000000004   -3.45629999999999   -0.78940000000000
H        -0.99570000000001   -4.76030000000003   -2.32769999999999
H        -4.16500000000003   -2.02890000000000   -1.31830000000000
C        -2.62130000000001   -0.50949999999986    0.44099999999998
N        -1.62600000000025    0.07329999999949    1.16020000000009
C        -1.89680000000003    1.15240000000004    1.91690000000004
C        -3.17229999999989    1.70329999999997    1.99650000000005
C        -4.20509999999995    1.11739999999995    1.26269999999993
C        -3.92609999999997    0.00249999999992    0.47820000000028
H        -4.71959999999997   -0.46420000000003   -0.09520000000005
H        -3.34630000000000    2.57510000000002    2.62070000000001
H        -1.04449999999998    1.57420000000000    2.43689999999999
Ir        0.42149999999999   -0.81650000000000    0.91330000000000
H         0.87260000000000   -2.23030000000000    1.54050000000000
B         0.50670000000001    0.41559999999998   -0.81539999999999
O         0.19499999999998   -0.04699999999999   -2.09149999999998
C         0.00649999999998    1.10040000000002   -2.95429999999999
C         0.49020000000009    0.74739999999994   -4.35779999999999
H         1.51609999999994    0.37380000000002   -4.33700000000000
H         0.44730000000000    1.62240000000001   -5.01670000000000
H        -0.14740000000001   -0.03390000000008   -4.78430000000000
C        -1.50120000000005    1.39560000000003   -2.96669999999994
H        -1.75370000000000    2.21460000000001   -3.64850000000003
H        -2.03200000000003    0.49449999999999   -3.28930000000000
H        -1.85169999999999    1.65210000000000   -1.96219999999998
C         0.84229999999997    2.20670000000001   -2.22039999999999
O         0.75200000000000    1.78259999999999   -0.83689999999999
C         2.32929999999997    2.18619999999998   -2.59900000000010
H         2.74129999999999    1.18500000000000   -2.45749999999999
H         2.48870000000000    2.51300000000003   -3.63180000000004
H         2.87200000000002    2.86270000000001   -1.93200000000001
C         0.28440000000001    3.62289999999997   -2.33660000000000
H        -0.72650000000004    3.69040000000000   -1.92910000000001
H         0.92130000000000    4.31480000000000   -1.77610000000001
H         0.26430000000001    3.94810000000001   -3.38320000000000
B         1.56299999999997    0.60960000000001    1.84840000000001
O         2.92780000000005    0.55229999999999    2.15020000000000
C         3.36330000000002    1.88659999999999    2.50260000000013
C         4.53139999999993    1.78589999999999    3.47739999999992
H         4.27910000000002    1.16090000000002    4.33690000000002
H         5.39389999999998    1.33789999999999    2.97339999999998
H         4.82390000000002    2.77870000000001    3.83820000000002
C         3.79700000000001    2.56850000000003    1.19669999999998
H         4.20020000000000    3.57090000000001    1.37679999999999
H         4.56740000000001    1.95559999999997    0.72110000000001
H         2.95240000000006    2.63260000000000    0.50540000000001
C         2.05040000000001    2.50090000000004    3.09320000000005
O         1.03750000000003    1.81620000000001    2.31910000000006
C         1.89100000000001    4.00449999999994    2.88649999999991
H         1.87290000000000    4.25440000000000    1.82410000000005
H         0.94939999999997    4.34260000000001    3.33170000000001
H         2.71079999999999    4.55150000000001    3.36630000000001
C         1.82469999999994    2.13200000000001    4.56519999999993
H         1.92610000000000    1.05330000000001    4.71320000000000
H         2.52609999999997    2.65279999999997    5.22539999999998
H         0.80630000000007    2.41580000000002    4.84899999999999
B         2.27820000000000   -1.33089999999999    0.17410000000000
O         2.89460000000001   -2.57739999999999    0.38450000000001
C         4.26929999999999   -2.48200000000001   -0.07209999999999
C         5.10900000000002   -2.05380000000002    1.14010000000010
H         4.76349999999999   -1.08739999999999    1.51750000000001
H         4.98050000000000   -2.79470000000001    1.93590000000003
H         6.17419999999999   -1.99290000000000    0.89300000000001
C         4.71950000000003   -3.84660000000002   -0.58469999999992
H         4.75279999999999   -4.56129999999997    0.24419999999999
H         5.72330000000000   -3.78369999999999   -1.02009999999998
H         4.03500000000000   -4.23599999999998   -1.34170000000001
C         4.16440000000000   -1.36220000000000   -1.16300000000013
O         3.08519999999998   -0.55030000000002   -0.65399999999999
C         5.40720000000004   -0.48870000000002   -1.31549999999981
H         6.27319999999999   -1.09010000000001   -1.61529999999999
H         5.23300000000000    0.26929999999998   -2.08590000000002
H         5.64270000000002    0.02650000000000   -0.38240000000006
C         3.71799999999990   -1.89830000000002   -2.53109999999996
H         2.82529999999994   -2.52159999999999   -2.42740000000000
H         3.46089999999998   -1.05250000000000   -3.17549999999999
H         4.50569999999996   -2.48289999999999   -3.01789999999999
H        -3.38500000000000   -4.00129999999999   -2.59310000000002
H        -5.21400000000000    1.52080000000001    1.29959999999998
C         0.23590000000008   -1.68139999999998    2.96030000000003
C        -1.08870985819525   -1.78692561375738    3.43496219097995
C         1.20105192446432   -2.08536771633997    3.89203730156007
C        -2.30722909608873   -2.16651911992961    2.71150691407974
C        -1.34942013299469   -1.78632217042325    4.81315125824203
C         0.88776457984689   -2.48221178225648    5.19200566824641
H         2.21985367387323   -2.20109035376326    3.54533597234941
C        -2.92138255019370   -1.65559815778238    1.59250757053415
C        -3.10763474176499   -3.19341894961993    3.32133681151193
C        -0.36761285987549   -2.15973977912411    5.70384590827870
H        -2.36539346335643   -1.62179940715183    5.15436330625737
C         1.75196251408694   -3.40543191366309    5.99386346068502
S        -4.51009705450824   -2.38290956929885    1.38543127942737
H        -1.90584459651768   -0.84905011053356    1.72641986097731
C        -4.30606809539353   -3.41244331233864    2.72671309680644
H        -2.76432105860507   -3.75115485301338    4.17579478450325
H        -0.61608865709649   -2.31261047424284    6.74645964348921
H         2.81172451608284   -3.28355422417198    5.78024275925184
H         1.46562837731906   -4.42730857388809    5.72815156210987
H         1.56517608858112   -3.28284130348117    7.06085381069685
H        -5.09375940891494   -4.09731403556357    2.98069854071840
