11
 energy: -24.264446792086 gnorm: 0.000393151760 xtb: 6.4.1 (1a32961)
C         1.18741446537278    1.52404971191271    0.05959774121761
C         0.04249042784146    0.74058211883106    0.03770801265184
Cl       -1.52549976784113    1.45802720887050    0.09222660820631
C         0.19992934914149   -0.64556150950761   -0.02951240335908
Cl       -1.17809732734103   -1.68203113981710   -0.06567794931095
N         1.37349866730634   -1.23176418307914   -0.07206260729176
C         2.46585446551909   -0.48337483343216   -0.04872574874460
C         2.42586503618620    0.90004986733462    0.01701168740648
H         1.09948469537254    2.59748739120956    0.11199128504654
H         3.39552402816569   -1.03143662393442   -0.08434416279195
H         3.33397596027659    1.47921199161198    0.03497753696954
