95
 energy: -136.697893325271 gnorm: 0.000278813411 xtb: 6.4.1 (1a32961)
N        -0.96094983173843   -2.05842724283573   -0.31785923543285
C        -2.22219255708558   -1.60344435688006   -0.44497866127770
C        -3.15905222648859   -2.28997765504488   -1.23022556712223
C        -2.78160612102293   -3.42724460449355   -1.90883012333262
C        -1.46570116391191   -3.87073025102666   -1.78793350568448
C        -0.60674380628994   -3.15653260795376   -0.97920046797877
H         0.41830544585746   -3.47077285791425   -0.84080785612209
H        -1.12549123329744   -4.75338548405395   -2.30464409493537
H        -4.17615885574079   -1.94043187287411   -1.29959697544603
C        -2.53870894410345   -0.37738666866349    0.27276032847201
N        -1.59069992813738    0.08965301426175    1.11709885590101
C        -1.84458872297165    1.20578518835594    1.80097259198519
C        -3.01686499016224    1.92181368398889    1.68395070635291
C        -3.99008092231916    1.46885502904311    0.79468585302379
C        -3.74262528409030    0.31333063830985    0.08663388442541
H        -4.47486358163064   -0.04663096411697   -0.61727021176034
H        -3.17035446376743    2.81389205426294    2.26945890705413
H        -1.05414923001145    1.52744434735780    2.46182557846414
Ir        0.42150000000001   -0.81650000000000    0.91330000000004
H         0.87259999999999   -2.23030000000012    1.54049999999991
B         0.39146889900455    0.59957660323205   -0.61446896823569
O        -0.14346688919801    0.23388852599306   -1.83490067209022
C        -0.22676029982969    1.37156580777977   -2.69999832540388
C         0.19356672933790    0.96782454413453   -4.11141272425689
H         1.15666999221384    0.46879803472105   -4.09434477573445
H         0.24373958982035    1.84294664214066   -4.75417708793086
H        -0.53997017608920    0.27487870865230   -4.51678274813403
C        -1.69588640277024    1.81795778393853   -2.71905842189602
H        -1.84263187179889    2.65538571307875   -3.39479193426537
H        -2.30895281510433    0.98245121414780   -3.05145457488231
H        -2.01752613584312    2.09375740985613   -1.71678647096099
C         0.71527785170974    2.40489496480402   -1.99693284561063
O         0.74941891014544    1.92790755316884   -0.64400246967090
C         2.15430332911882    2.33828365727503   -2.52276494238680
H         2.52721892978041    1.32400507359345   -2.40218321938558
H         2.21271349582836    2.64985930300531   -3.56164570726791
H         2.77702631397603    2.99547670700110   -1.92063247039076
C         0.22587336846205    3.85130324549693   -2.02718920825086
H        -0.71996883170906    3.95922025359833   -1.50551387979244
H         0.95877139230581    4.48405855341581   -1.53268830580569
H         0.11297173370492    4.18372872880229   -3.05592158314414
B         1.60381983340230    0.62230479234308    1.86054281654886
O         2.95937651765258    0.80919093634659    1.77123921130119
C         3.32526060672730    2.05614180225174    2.37933225442952
C         4.64927503194480    1.90163921371162    3.12519207631267
H         4.61492259085057    1.05536714164776    3.80269088418752
H         5.44523196462094    1.72860557363100    2.40532689841619
H         4.87291284233480    2.80794880295683    3.68165287852865
C         3.49178160883679    3.06559076805233    1.23704237612991
H         3.76332856866535    4.04901221076498    1.60938813619817
H         4.27438530867962    2.70802110770479    0.57190862185749
H         2.56625863341511    3.11188066200971    0.66870365886235
C         2.08835775418567    2.36852611814796    3.28629938796216
O         1.05177801612946    1.57947037211124    2.68542555234613
C         1.66122142737753    3.83493508850951    3.31192772316496
H         1.34843012867490    4.16198980115784    2.32586878366321
H         0.82078343317650    3.94929523631814    3.99227226589702
H         2.48128681084289    4.45662361364312    3.66106544046673
C         2.26320045963717    1.86020785367492    4.72206829223378
H         2.52214875416158    0.80548394003425    4.70072534202596
H         3.02436686928583    2.42652169788901    5.24983875345494
H         1.31617436399992    1.96360491752779    5.24716029944776
B         2.27819999999973   -1.33090000000067    0.17409999999968
O         3.06415108585383   -2.36107551380502    0.64057440999447
C         4.36930235794799   -2.29642368609646    0.05188338839128
C         5.28858604384509   -1.66519754282776    1.10280225309715
H         4.87302808207923   -0.70712100878204    1.40129889285596
H         5.30351265146060   -2.31056153273603    1.97722409760906
H         6.30137989992765   -1.54835336608891    0.72974792062713
C         4.85485004222799   -3.71095199183593   -0.26431150510482
H         4.95162774374488   -4.26171882789489    0.66753598634750
H         5.82369007678694   -3.67333747546652   -0.75433460424668
H         4.14919577657180   -4.24017977796172   -0.89594184917700
C         4.14075727479734   -1.37434712756502   -1.19781860164250
O         2.89659414121430   -0.72480927306361   -0.89445654961095
C         5.21657940158141   -0.31094994293968   -1.41202707329255
H         6.19058981692238   -0.77640117460803   -1.53434899215730
H         4.98285988351104    0.25684836747243   -2.30920565553934
H         5.23595613917093    0.37430543939263   -0.57195076298304
C         3.93953028475205   -2.15735184888517   -2.50234337533361
H         3.13771801174271   -2.88139188053385   -2.38627675450981
H         3.64999886729521   -1.46039923084378   -3.28526423012372
H         4.85367769232420   -2.66216386443469   -2.79965808741949
H        -3.49162516448749   -3.96465457211822   -2.51902587151633
H        -4.91422438173093    2.01042456702757    0.66020455147075
C         0.23589999999910   -1.68140000000069    2.96030000000024
C        -1.05277669590632   -2.09653144485210    3.31818477920273
N         1.16553303702288   -1.47238704340514    3.87868858906138
C        -1.37826205303157   -2.20478721132880    4.65807801141951
H        -1.79062480402744   -2.32997845402174    2.56446574785406
C         0.85629031866841   -1.58892444834875    5.15926178764864
C        -0.40519572657384   -1.93847952768970    5.61230863619575
H        -2.37459393572475   -2.50241157598621    4.95732894985644
H         1.66405850546018   -1.39789129981576    5.85618605617844
H        -0.61607258749015   -2.01663590104464    6.66771005608356
