18
 energy: -31.138824247291 gnorm: 0.000099979154 xtb: 6.4.1 (1a32961)
C         0.94019856813908   -1.40447647929182    0.11026791952133
Cl        1.06547485376043   -3.12172206977348    0.34339207224587
C         2.07355093454155   -0.61356590779168    0.08112457133942
C         1.93999214163314    0.76366627891600   -0.10698458838933
N         0.78730639433423    1.38996280443681   -0.26110153863038
C        -0.28861342885450    0.61934064194866   -0.22896036794108
N        -1.57568815285143    1.02331785023234   -0.36016284226482
C        -2.40857817875429   -0.06578501960027   -0.27099647568577
C        -3.88115924223491    0.09384928634966   -0.37837530745451
C        -1.66165132770593   -1.19475098197884   -0.07980811521192
C        -0.30027944092846   -0.79736838077667   -0.04739784510474
H         3.05139188493479   -1.04937282313605    0.20158135954555
H         2.81697665752710    1.39434029301230   -0.13273646243600
H        -1.86732008769124    1.97703739915009   -0.49797253202927
H        -4.25361595304368    0.73698664157321    0.41795249915871
H        -4.36467105754787   -0.87502831804445   -0.30133502872752
H        -4.14756486689674    0.54560045993568   -1.33302933275664
H        -2.02878969836131   -2.19582167516150    0.02597201482112
