99
 energy: -139.597623284507 gnorm: 0.000203605330 xtb: 6.4.1 (1a32961)
N        -0.91071969858414   -2.01884619682138   -0.37617983454402
C        -2.16866290988680   -1.55957056543431   -0.52569706392659
C        -3.05273703831616   -2.16685588048335   -1.42806388178675
C        -2.63396313322637   -3.23868009037661   -2.18414524121542
C        -1.32723235358444   -3.69652791291628   -2.02472852801400
C        -0.51733097434504   -3.05508346029929   -1.11215136795549
H         0.50042673535253   -3.38042739787668   -0.94796207573818
H        -0.95652878673272   -4.53307682059708   -2.59456661504597
H        -4.06136775196448   -1.80320521202335   -1.53641831560737
C        -2.53624340975997   -0.41308655487001    0.29260703229529
N        -1.59272067278911    0.04704497910134    1.14377239942899
C        -1.88952923335979    1.08608192086192    1.92214756085068
C        -3.10780784168945    1.73207642310755    1.90047721077281
C        -4.08397260137492    1.28293710501499    1.01339141688715
C        -3.79038327476776    0.20534187869292    0.20724196946245
H        -4.53144632366419   -0.15427311071756   -0.48736026991597
H        -3.29486700307202    2.56436564974019    2.55965161923223
H        -1.09743065851386    1.40658992864767    2.58105747276698
Ir        0.42150000000005   -0.81650000000001    0.91329999999996
H         0.87259999999992   -2.23030000000001    1.54049999999995
B         0.40038751334925    0.63364612941143   -0.58939000027179
O        -0.26653230426383    0.36932014748183   -1.77365640574970
C        -0.35453371408432    1.55998242092405   -2.56275382634706
C        -0.14276501807708    1.21902254355753   -4.03562156393960
H         0.76651016372956    0.64231851114782   -4.16896836161151
H        -0.08913387491293    2.12986105154270   -4.62642860813969
H        -0.97954628348294    0.62045235272856   -4.38807394789330
C        -1.77062754673231    2.12243226368925   -2.37112526562043
H        -1.92895753924088    3.00572668677718   -2.98282499407214
H        -2.49046353389902    1.35806436857352   -2.65769637864084
H        -1.93784425921506    2.36568557385997   -1.32357101990396
C         0.74683423910061    2.46984141727307   -1.92776274659809
O         0.87161948621744    1.92743743518507   -0.60646300107653
C         2.11221831098392    2.29717172360102   -2.60471668639242
H         2.38690239992971    1.24518951560819   -2.58660447450469
H         2.10280171865273    2.67443350044874   -3.62338746632947
H         2.85654352348945    2.84353926374631   -2.03009130339138
C         0.39622287721911    3.95459362831741   -1.85452242722198
H        -0.46624917210375    4.12488274419456   -1.21764491098741
H         1.23927374864501    4.49907717050139   -1.43594762503141
H         0.19222702430757    4.33792693045046   -2.85118070242173
B         1.57169896775471    0.63602311419945    1.87754170858468
O         2.94302711781314    0.75666252343244    1.89582269756269
C         3.31774919746884    2.02871143435195    2.44318044167522
C         4.56765765665595    1.87532801393961    3.30833979908589
H         4.43593681337746    1.09491808004108    4.05012724069701
H         5.40859054862863    1.60283694869054    2.67569720930225
H         4.79446846840343    2.81495021580110    3.80491152010158
C         3.62665324513437    2.94316869533845    1.25168445253044
H         3.90616632997530    3.94144349121318    1.57543574114636
H         4.44906774550970    2.51080988523382    0.68607656564159
H         2.75653201722931    2.97904098496652    0.60120943033326
C         2.02756603166977    2.46091200698616    3.21854830665284
O         1.00830479518799    1.66319365858935    2.60247643669837
C         1.66207476753608    3.93823598915975    3.08684545563516
H         1.44252398489124    4.18703739277770    2.05401568648055
H         0.77474923681878    4.13929588296203    3.68215543906042
H         2.47577737161575    4.56033090362070    3.45009375151379
C         2.06413954421786    2.07803113703424    4.70337703082433
H         2.27666361951896    1.01804807262551    4.80578066554692
H         2.80537083359691    2.66192174208316    5.24051277274943
H         1.08401428060569    2.26524965989687    5.13589865675559
B         2.27820000000082   -1.33089999999948    0.17409999999910
O         3.10530685063250   -2.30627254689445    0.69150795376238
C         4.38697394363203   -2.26783258992268    0.05252625860667
C         5.33832684674173   -1.56585293641014    1.02780476144646
H         4.92081269427031   -0.59781069677173    1.28978146254183
H         5.40011635938830   -2.16140272261763    1.93519528706538
H         6.33326810731417   -1.45628775620454    0.60762136674363
C         4.87600540877551   -3.69559509325325   -0.19235045836008
H         5.01345441110046   -4.18710564544251    0.76718887655938
H         5.82525055863399   -3.68057026819962   -0.72049637763431
H         4.15298906457050   -4.26940760655266   -0.76239650733375
C         4.10525928526929   -1.42978871540413   -1.24504009374169
O         2.85877101846723   -0.78390734816109   -0.94731077573324
C         5.15559132809579   -0.36539607636539   -1.55940762588471
H         6.13161440047682   -0.82384795355901   -1.69222818993727
H         4.87951518044092    0.14656627647426   -2.47785249741590
H         5.19749854091287    0.36914810554489   -0.76279112052005
C         3.88142669710643   -2.29562740431618   -2.49249271842702
H         3.10134926846329   -3.02875411242408   -2.30684223502087
H         3.54998764345168   -1.65379835031793   -3.30533025939934
H         4.79705662135632   -2.79784475985746   -2.78969401788694
H        -3.30444655286526   -3.71291302331056   -2.88479663340949
H        -5.04794549519940    1.76592083752837    0.95770255137317
C         0.23589999999947   -1.68139999999896    2.96029999999977
C        -1.05142404020519   -2.04305495285466    3.34386223137848
C         1.20841170831039   -1.56010238779936    3.94978240871216
C        -1.37343974182617   -2.17613312915380    4.68595305712180
H        -1.82005608976016   -2.22780028977878    2.60573561309137
C         0.90296282605036   -1.70683471852707    5.29611995233813
H         2.22667677388226   -1.35533583912898    3.65232011166721
C        -0.40790070752584   -2.00083396611014    5.65911973877644
H        -2.38549253907900   -2.43205347417867    4.97094619153162
C         1.96118534584689   -1.56372730594854    6.35158620160395
H        -0.66348186512654   -2.11386392897458    6.70349657833897
H         1.92867776898531   -2.40621810837183    7.04046336551566
H         1.79816448173800   -0.65394064969639    6.92918893148217
H         2.94938356524889   -1.51746032282989    5.90138252294148
