105
 energy: -152.995474329231 gnorm: 0.006077531158 xtb: 6.4.1 (1a32961)
N        -0.96509999999999   -2.11530000000003   -0.24089999999999
C        -2.24700000000002   -1.69839999999997   -0.36219999999995
C        -3.14039999999993   -2.36820000000008   -1.21199999999989
C        -2.70219999999990   -3.47559999999998   -1.93049999999996
C        -1.37780000000002   -3.89880000000006   -1.78760000000003
C        -0.54289999999999   -3.18669999999994   -0.93509999999995
H         0.49809999999997   -3.45630000000000   -0.78939999999998
H        -0.99570000000001   -4.76030000000002   -2.32769999999994
H        -4.16499999999997   -2.02890000000000   -1.31829999999999
C        -2.62130000000002   -0.50949999999993    0.44100000000015
N        -1.62600000000003    0.07330000000000    1.16020000000000
C        -1.89680000000003    1.15240000000007    1.91689999999996
C        -3.17230000000000    1.70330000000002    1.99650000000006
C        -4.20510000000001    1.11740000000005    1.26270000000010
C        -3.92610000000001    0.00250000000002    0.47820000000001
H        -4.71959999999995   -0.46419999999998   -0.09519999999998
H        -3.34629999999999    2.57509999999998    2.62069999999998
H        -1.04450000000001    1.57419999999998    2.43689999999999
Ir        0.42150000000000   -0.81650000000000    0.91330000000000
H         0.87260000000000   -2.23030000000000    1.54050000000000
B         0.50670000000000    0.41560000000002   -0.81540000000000
O         0.19499999999998   -0.04700000000000   -2.09150000000003
C         0.00649999999995    1.10040000000001   -2.95429999999997
C         0.49019999999981    0.74740000000007   -4.35779999999999
H         1.51610000000012    0.37380000000002   -4.33700000000000
H         0.44730000000000    1.62240000000001   -5.01669999999998
H        -0.14739999999991   -0.03389999999996   -4.78430000000002
C        -1.50119999999990    1.39560000000002   -2.96669999999997
H        -1.75370000000000    2.21459999999996   -3.64850000000000
H        -2.03199999999997    0.49450000000004   -3.28930000000001
H        -1.85169999999999    1.65210000000001   -1.96220000000003
C         0.84230000000001    2.20669999999989   -2.22039999999995
O         0.75200000000000    1.78260000000000   -0.83689999999997
C         2.32929999999999    2.18619999999996   -2.59899999999999
H         2.74130000000001    1.18500000000007   -2.45750000000005
H         2.48870000000000    2.51300000000000   -3.63180000000000
H         2.87199999999996    2.86269999999999   -1.93199999999999
C         0.28440000000005    3.62289999999998   -2.33659999999989
H        -0.72650000000003    3.69040000000001   -1.92910000000002
H         0.92129999999998    4.31479999999998   -1.77610000000003
H         0.26430000000000    3.94810000000000   -3.38319999999998
B         1.56299999999996    0.60960000000004    1.84840000000000
O         2.92779999999998    0.55229999999998    2.15020000000001
C         3.36329999999990    1.88659999999999    2.50260000000018
C         4.53140000000001    1.78589999999992    3.47740000000018
H         4.27909999999998    1.16090000000011    4.33689999999990
H         5.39389999999997    1.33790000000002    2.97339999999999
H         4.82390000000002    2.77870000000005    3.83820000000001
C         3.79699999999995    2.56849999999996    1.19670000000012
H         4.20020000000000    3.57090000000001    1.37680000000000
H         4.56740000000001    1.95560000000000    0.72110000000000
H         2.95239999999998    2.63260000000000    0.50539999999998
C         2.05040000000002    2.50090000000004    3.09320000000004
O         1.03750000000004    1.81620000000007    2.31909999999998
C         1.89100000000006    4.00449999999999    2.88649999999993
H         1.87289999999999    4.25439999999999    1.82410000000003
H         0.94939999999996    4.34260000000001    3.33170000000003
H         2.71079999999997    4.55150000000001    3.36629999999998
C         1.82469999999995    2.13200000000006    4.56519999999993
H         1.92610000000000    1.05329999999998    4.71320000000001
H         2.52610000000001    2.65279999999998    5.22539999999991
H         0.80630000000009    2.41580000000002    4.84900000000003
B         2.27820000000000   -1.33090000000000    0.17410000000001
O         2.89460000000000   -2.57740000000000    0.38450000000001
C         4.26930000000001   -2.48199999999998   -0.07210000000002
C         5.10900000000000   -2.05379999999998    1.14009999999999
H         4.76350000000000   -1.08739999999995    1.51750000000000
H         4.98050000000000   -2.79470000000000    1.93589999999999
H         6.17420000000002   -1.99290000000000    0.89299999999999
C         4.71950000000000   -3.84660000000000   -0.58469999999996
H         4.75280000000001   -4.56130000000002    0.24420000000000
H         5.72330000000000   -3.78370000000000   -1.02010000000001
H         4.03499999999998   -4.23600000000000   -1.34170000000002
C         4.16440000000002   -1.36220000000000   -1.16300000000000
O         3.08519999999993   -0.55029999999994   -0.65400000000001
C         5.40719999999998   -0.48869999999995   -1.31550000000017
H         6.27320000000002   -1.09010000000001   -1.61530000000000
H         5.23299999999998    0.26929999999999   -2.08590000000001
H         5.64270000000002    0.02649999999994   -0.38239999999990
C         3.71800000000008   -1.89830000000003   -2.53110000000002
H         2.82530000000011   -2.52160000000004   -2.42740000000001
H         3.46089999999999   -1.05249999999998   -3.17550000000001
H         4.50570000000004   -2.48290000000000   -3.01790000000000
H        -3.38500000000006   -4.00130000000006   -2.59309999999989
H        -5.21400000000001    1.52079999999996    1.29960000000002
C         0.23589999999982   -1.68140000000000    2.96029999999998
C        -1.00581617740597   -2.28840375203462    3.29406517111859
C         1.26344055675836   -1.89149672395537    3.88620907743127
C        -2.30095541168783   -2.33191235723974    2.54596609200837
C        -1.20582296688992   -2.99792388702213    4.49236228069639
C         1.09086687397933   -2.62596724758702    5.04723530776777
H         2.24610501035220   -1.51054462850414    3.64019748801859
O        -3.15603936376635   -1.47861968395923    2.71095953439975
C        -2.62358269706544   -3.61075458587627    1.80934672331723
O        -2.36609310048015   -3.68777027760641    4.79599863648047
C        -0.13433575691153   -3.19129772373096    5.36065040575736
H         1.93121779381553   -2.80938810566735    5.70341071948065
H        -2.84267725107071   -4.37842330005606    2.55056056401398
H        -1.78226286219403   -3.95970034921884    1.21004690839173
H        -3.50776399909904   -3.46521450797460    1.18831480182020
C        -3.60682131279572   -3.02077249394784    4.98532818891037
H        -0.28650301747021   -3.81748439012093    6.23046452915124
H        -4.10572009555964   -3.52963114436395    5.81450581499486
H        -4.24682895215461   -3.09440959074297    4.10069082890487
H        -3.47317555164801   -1.96508762234334    5.22765707342960
