111
 energy: -157.909295631500 gnorm: 0.000562906464 xtb: 6.4.0 (f63f532)
N        -0.96510000000000   -2.11529999999999   -0.24090000000000
C        -2.24699999999999   -1.69839999999998   -0.36219999999997
C        -3.14040000000000   -2.36820000000001   -1.21200000000001
C        -2.70219999999999   -3.47559999999997   -1.93050000000001
C        -1.37780000000003   -3.89880000000000   -1.78760000000001
C        -0.54290000000001   -3.18670000000000   -0.93510000000000
H         0.49810000000001   -3.45630000000000   -0.78940000000000
H        -0.99570000000000   -4.76030000000001   -2.32770000000000
H        -4.16500000000001   -2.02890000000000   -1.31830000000000
C        -2.62129999999999   -0.50949999999999    0.44099999999998
N        -1.62600000000000    0.07329999999997    1.16019999999999
C        -1.89679999999998    1.15239999999998    1.91689999999998
C        -3.17229999999999    1.70329999999999    1.99650000000003
C        -4.20510000000000    1.11740000000001    1.26269999999995
C        -3.92610000000001    0.00249999999997    0.47820000000002
H        -4.71960000000000   -0.46420000000001   -0.09519999999999
H        -3.34630000000000    2.57509999999997    2.62069999999999
H        -1.04450000000001    1.57420000000000    2.43689999999999
Ir        0.42150000000000   -0.81650000000000    0.91330000000000
H         0.87260000000000   -2.23030000000000    1.54050000000000
B         0.50670000000001    0.41560000000001   -0.81539999999999
O         0.19500000000000   -0.04700000000002   -2.09150000000000
C         0.00650000000002    1.10040000000000   -2.95429999999999
C         0.49020000000000    0.74739999999999   -4.35780000000001
H         1.51609999999997    0.37379999999999   -4.33700000000000
H         0.44730000000000    1.62240000000000   -5.01669999999999
H        -0.14740000000003   -0.03390000000001   -4.78429999999999
C        -1.50119999999998    1.39560000000000   -2.96670000000003
H        -1.75370000000000    2.21460000000002   -3.64850000000000
H        -2.03200000000000    0.49449999999999   -3.28929999999999
H        -1.85170000000000    1.65210000000000   -1.96219999999999
C         0.84229999999998    2.20669999999999   -2.22040000000002
O         0.75200000000000    1.78260000000001   -0.83689999999999
C         2.32930000000001    2.18620000000000   -2.59900000000000
H         2.74130000000000    1.18500000000000   -2.45750000000000
H         2.48870000000000    2.51300000000000   -3.63180000000000
H         2.87200000000000    2.86269999999999   -1.93200000000001
C         0.28440000000001    3.62290000000000   -2.33660000000001
H        -0.72650000000000    3.69040000000000   -1.92910000000000
H         0.92129999999999    4.31480000000000   -1.77609999999999
H         0.26429999999999    3.94810000000000   -3.38320000000001
B         1.56299999999999    0.60960000000000    1.84840000000000
O         2.92780000000001    0.55230000000000    2.15020000000000
C         3.36330000000001    1.88660000000000    2.50260000000001
C         4.53139999999999    1.78590000000000    3.47739999999999
H         4.27910000000000    1.16090000000001    4.33690000000001
H         5.39389999999998    1.33790000000000    2.97340000000000
H         4.82390000000001    2.77870000000001    3.83820000000000
C         3.79700000000000    2.56850000000000    1.19670000000000
H         4.20020000000000    3.57090000000000    1.37680000000000
H         4.56740000000000    1.95560000000000    0.72110000000000
H         2.95240000000000    2.63260000000000    0.50540000000000
C         2.05040000000001    2.50090000000000    3.09320000000000
O         1.03749999999998    1.81620000000000    2.31910000000001
C         1.89099999999999    4.00450000000001    2.88650000000001
H         1.87290000000000    4.25440000000000    1.82409999999999
H         0.94939999999999    4.34260000000000    3.33170000000000
H         2.71079999999999    4.55150000000000    3.36630000000000
C         1.82470000000005    2.13200000000000    4.56519999999999
H         1.92610000000000    1.05330000000000    4.71320000000000
H         2.52610000000002    2.65280000000000    5.22539999999999
H         0.80630000000002    2.41579999999999    4.84900000000000
B         2.27820000000000   -1.33089999999999    0.17410000000000
O         2.89460000000000   -2.57740000000000    0.38450000000001
C         4.26929999999999   -2.48200000000002   -0.07209999999997
C         5.10900000000001   -2.05379999999999    1.14010000000003
H         4.76350000000000   -1.08740000000000    1.51749999999999
H         4.98050000000000   -2.79469999999999    1.93590000000000
H         6.17420000000000   -1.99290000000000    0.89299999999999
C         4.71950000000001   -3.84659999999999   -0.58470000000002
H         4.75280000000000   -4.56130000000000    0.24420000000002
H         5.72329999999998   -3.78370000000000   -1.02010000000001
H         4.03500000000000   -4.23599999999999   -1.34170000000000
C         4.16440000000002   -1.36219999999999   -1.16300000000003
O         3.08519999999999   -0.55030000000000   -0.65400000000000
C         5.40719999999999   -0.48870000000000   -1.31549999999999
H         6.27320000000000   -1.09010000000000   -1.61529999999999
H         5.23300000000000    0.26930000000000   -2.08590000000000
H         5.64269999999999    0.02649999999999   -0.38239999999999
C         3.71800000000000   -1.89829999999999   -2.53110000000001
H         2.82529999999996   -2.52160000000000   -2.42740000000000
H         3.46090000000000   -1.05250000000000   -3.17550000000000
H         4.50570000000002   -2.48290000000001   -3.01790000000000
H        -3.38499999999999   -4.00130000000001   -2.59310000000001
H        -5.21400000000000    1.52080000000000    1.29960000000004
C         0.23589999999994   -1.68140000000000    2.96029999999997
C        -1.04623321630984   -2.02616113955360    3.38603820852794
N         1.25978868228081   -1.71033624048940    3.81183390818698
C        -1.25997571348616   -2.32060872968374    4.72335338689527
H        -1.87434475608189   -2.07634449135643    2.69183199412921
C         1.07817052522397   -2.04934296265824    5.08903470203426
C        -0.18201610989246   -2.34285344319585    5.59842385820624
H        -2.25489390934727   -2.56741235569096    5.07502319261636
C         2.33854428598494   -2.20816133476263    5.89429051829319
H        -0.31318683765491   -2.61111198653944    6.63804123103085
C         3.14518403719727   -3.37169064554133    5.30048640701792
H         2.10456373085500   -2.40045520374066    6.94520147615758
H         2.93520846661179   -1.29458142440277    5.82422165674353
C         4.45795738021011   -3.56518998154785    6.00851050117578
H         3.31338180790257   -3.14290886048738    4.24359407041508
H         2.54920195314648   -4.28766617979414    5.36357259288198
C         4.61554619153593   -4.55705811877774    6.97266175084737
C         5.54010500668317   -2.73762659694229    5.71644740539916
C         5.82801247547358   -4.72315407080099    7.62690603693930
H         3.78382361132408   -5.21048442737085    7.20794728464485
C         6.75174023976580   -2.89951911932456    6.37146072166530
H         5.42659925658137   -1.97026453475524    4.96046447297157
C         6.89881985564545   -3.89421661445923    7.32750677544226
H         5.93728376125103   -5.50350847430404    8.37004946252368
H         7.58526563007962   -2.25139240559250    6.13187570346141
H         7.84529100898330   -4.02494186522981    7.83656511942502
