111
 energy: -157.922949594557 gnorm: 0.000263444887 xtb: 6.4.0 (f63f532)
N        -0.95698502476916   -2.00844466545170   -0.34350700618889
C        -2.20874371961572   -1.52817432949309   -0.48392104094127
C        -3.15139102573395   -2.19583549949734   -1.27907159713224
C        -2.79075186247343   -3.33916271325494   -1.95533540489345
C        -1.48470454263187   -3.80924898906030   -1.82096848278782
C        -0.61989482061688   -3.11431650693743   -1.00279088031915
H         0.39668718787417   -3.45062939762845   -0.85390776514358
H        -1.15749336946585   -4.69824613603757   -2.33519688883893
H        -4.16057491368382   -1.82542458525388   -1.35682301764475
C        -2.50797817733725   -0.29685475952100    0.22856995860571
N        -1.56204292859394    0.14631578079139    1.08937170124111
C        -1.80140107547802    1.26861635755795    1.77001078206825
C        -2.95304386197118    2.01282274467315    1.63372809470283
C        -3.92257088024180    1.58452059397539    0.72726130087687
C        -3.69131185946876    0.42413448912423    0.02274052469365
H        -4.41935454067220    0.08275631522377   -0.69473305753262
H        -3.09474330775080    2.90791334487870    2.21777851946133
H        -1.01563981444159    1.57117269099435    2.44489747540587
Ir        0.42149999999994   -0.81649999999991    0.91330000000023
H         0.87259999999994   -2.23030000000001    1.54050000000002
B         0.44012839070910    0.63229287583216   -0.58809343882120
O        -0.11725133568292    0.32824855405450   -1.81510177732973
C        -0.15640115572968    1.49614926813198   -2.64279473972352
C         0.23133571769130    1.11856968473862   -4.07047414477456
H         1.17416146477044    0.58201109820087   -4.08106422496591
H         0.30851558999492    2.01003397863907   -4.68755440385455
H        -0.53403495010092    0.46732782263971   -4.48615644984607
C        -1.60287166776613    2.01104582070768   -2.63127701194560
H        -1.71620961699976    2.87543617779997   -3.27888530739471
H        -2.25883437390714    1.21674955036394   -2.98220061006477
H        -1.90055001158677    2.27024756265124   -1.61725453035842
C         0.83792666734239    2.46278895923356   -1.91748983116057
O         0.86060177624517    1.94241484837113   -0.58062982885413
C         2.26833730583904    2.34773210184314   -2.45834499195809
H         2.59487884564309    1.31383271878424   -2.37710566318749
H         2.33399833098652    2.69359797935862   -3.48591258535200
H         2.92519297917960    2.95251889912221   -1.83773940966970
C         0.41569991062826    3.93066173641843   -1.89850616710659
H        -0.51657551828022    4.06686918968851   -1.35922073682154
H         1.18419366752483    4.51454887583221   -1.39778787054999
H         0.30374306225802    4.29828599043036   -2.91532853505802
B         1.61826982226845    0.58090767710997    1.90790289886188
O         2.98538530524067    0.69226164100145    1.88366586438115
C         3.39026710782448    1.92950267680091    2.48572964624376
C         4.66677008651835    1.71619005707835    3.29705973230812
H         4.55124426973413    0.88782111607840    3.98791072728980
H         5.48462735097409    1.48290735814698    2.61998975358276
H         4.91621482517490    2.61912752576470    3.84794934348804
C         3.66547003441036    2.90616744419428    1.33609573213848
H         3.97551141271289    3.87962771500513    1.70471118370323
H         4.45494024912190    2.49395290695129    0.71198628040688
H         2.76998766259083    2.99345454909496    0.72610447677087
C         2.13055088768071    2.32753511883936    3.32570225917562
O         1.08232413732375    1.57972030266886    2.69315738986439
C         1.78275519590346    3.81438775954707    3.30206172178943
H         1.53363318070686    4.13445268367621    2.29588160556142
H         0.91942960258919    3.98857558527733    3.93966478224957
H         2.61827324884882    4.39941342270768    3.67697864424070
C         2.20903371192487    1.84180135916294    4.77732798937062
H         2.39806873418534    0.77217183016327    4.78328695315142
H         2.98349391150133    2.36578728368165    5.32900468868153
H         1.24987963180853    2.01593723623770    5.25974809832007
B         2.27820000000001   -1.33090000000015    0.17410000000035
O         3.01855738887822   -2.41114186164752    0.60235203814201
C         4.33762929155649   -2.36189380516847    0.04515456767434
C         5.24959107371617   -1.81044590107797    1.14622173989728
H         4.85610945076693   -0.85446377245631    1.47991058866447
H         5.22215757207033   -2.49772796803491    1.98837870213262
H         6.27489950325185   -1.71004939768520    0.80401533268983
C         4.78718500309688   -3.77396023732937   -0.32890919311405
H         4.85514282788644   -4.37001998913288    0.57719969939475
H         5.76373296673529   -3.74230554381439   -0.80389008361872
H         4.07579058951898   -4.25223358173820   -0.99390768682243
C         4.16499705143603   -1.37558156591459   -1.16310572008051
O         2.94055481998197   -0.69373510765774   -0.84854944385229
C         5.28465318619622   -0.34748315782240   -1.31293029574007
H         6.24022611495997   -0.84626818178793   -1.44911140709413
H         5.08434985696089    0.27382426844548   -2.18223962428008
H         5.32304987767071    0.29323895228793   -0.43910725239910
C         3.95385245089941   -2.09113585829372   -2.50438027736001
H         3.12317882283322   -2.78782779735221   -2.43075985304397
H         3.70258156430636   -1.34968208956587   -3.25932434129553
H         4.85197131250657   -2.61767097578065   -2.81265486187680
H        -3.50515764203728   -3.86158731168693   -2.57335533850679
H        -4.83038385029823    2.14931359106978    0.57771376045603
C         0.23589999999950   -1.68140000000135    2.96029999999870
C        -1.07185532283618   -1.94878233258473    3.38043917290866
N         1.23746796307730   -1.68944202556424    3.82182027506380
C        -1.31010675068742   -2.13009998383234    4.73156800797583
H        -1.88759914074662   -2.01282293227945    2.67611226042637
C         1.03116039055433   -1.91701479694066    5.11292186014024
C        -0.24612076480594   -2.12040143667329    5.62231930207122
H        -2.31694573633810   -2.30521938548898    5.08765376120910
C         2.26553075916263   -2.01548149347589    5.96471166819284
H        -0.40249264546424   -2.28915789245496    6.67721398681742
C         3.17952736182775   -3.12529376823269    5.41436980425800
H         1.99910522460973   -2.21918806141635    7.00290706933246
H         2.81134403024896   -1.07086671914143    5.92802019071773
C         4.50649864328552   -3.13354463673664    6.11387940150440
H         3.31120940476691   -2.93670046309317    4.34751296992654
H         2.68064741173728   -4.08890690259687    5.53813303179745
C         4.71392134988428   -3.90756775885953    7.24893125934174
C         5.54752459428828   -2.33819838415514    5.64930420867785
C         5.93389049511018   -3.89135075273608    7.90303610906839
H         3.91382512177149   -4.53273814897875    7.62019368429697
C         6.76834096124553   -2.31991607761170    6.29993274797371
H         5.39509937329603   -1.73717097716779    4.76407761497412
C         6.96481533652725   -3.09707476260119    7.42987742155348
H         6.08125540279914   -4.50160213656960    8.78291190514653
H         7.57001227388035   -1.70081315731027    5.92410026545417
H         7.91809401118571   -3.08636409836120    7.93820654637649
