137
 energy: -185.356019000756 gnorm: 0.000522061537 xtb: 6.4.1 (1a32961)
N        -0.96510000000036   -2.11530000000000   -0.24090000000009
C        -2.24700000000044   -1.69839999999950   -0.36219999999980
C        -3.14040000000027   -2.36820000000059   -1.21200000000097
C        -2.70220000000078   -3.47560000000131   -1.93049999999903
C        -1.37779999999860   -3.89879999999644   -1.78759999999905
C        -0.54290000000009   -3.18669999999603   -0.93510000000182
H         0.49810000000040   -3.45629999999980   -0.78940000000030
H        -0.99569999999978   -4.76029999999910   -2.32770000000108
H        -4.16500000000026   -2.02889999999975   -1.31830000000005
C        -2.62129999999930   -0.50950000000071    0.44099999999963
N        -1.62600000000039    0.07329999999849    1.16019999999956
C        -1.89680000000005    1.15240000000013    1.91690000000044
C        -3.17230000000046    1.70330000000048    1.99650000000060
C        -4.20509999999899    1.11740000000030    1.26269999999811
C        -3.92609999999930    0.00249999999999    0.47820000000029
H        -4.71959999999986   -0.46419999999993   -0.09519999999993
H        -3.34629999999992    2.57510000000012    2.62069999999950
H        -1.04449999999880    1.57420000000031    2.43690000000036
Ir        0.42149999999995   -0.81649999999989    0.91330000000008
H         0.87260000000003   -2.23029999999996    1.54050000000002
B         0.50670000000023    0.41559999999743   -0.81539999999905
O         0.19500000000005   -0.04699999999940   -2.09150000000077
C         0.00649999999875    1.10039999999956   -2.95429999999775
C         0.49019999999985    0.74739999999658   -4.35780000000282
H         1.51610000000076    0.37380000000041   -4.33699999999993
H         0.44730000000010    1.62240000000041   -5.01670000000059
H        -0.14739999999944   -0.03389999999826   -4.78429999999932
C        -1.50120000000052    1.39560000000139   -2.96669999999884
H        -1.75370000000004    2.21460000000168   -3.64850000000159
H        -2.03199999999959    0.49449999999803   -3.28930000000028
H        -1.85169999999992    1.65210000000011   -1.96220000000010
C         0.84230000000087    2.20669999999768   -2.22040000000089
O         0.75199999999994    1.78259999999804   -0.83690000000064
C         2.32929999999947    2.18620000000497   -2.59899999999879
H         2.74129999999968    1.18499999999946   -2.45749999999938
H         2.48870000000013    2.51300000000033   -3.63179999999961
H         2.87200000000032    2.86269999999946   -1.93199999999957
C         0.28439999999968    3.62289999999222   -2.33660000000279
H        -0.72649999999994    3.69040000000027   -1.92909999999986
H         0.92130000000005    4.31479999999891   -1.77609999999942
H         0.26430000000014    3.94810000000032   -3.38320000000014
B         1.56300000000016    0.60959999999959    1.84840000000009
O         2.92779999999992    0.55230000000007    2.15020000000024
C         3.36329999999999    1.88660000000060    2.50260000000182
C         4.53139999999993    1.78589999999894    3.47739999999973
H         4.27910000000005    1.16090000000010    4.33690000000029
H         5.39390000000010    1.33789999999980    2.97340000000004
H         4.82389999999996    2.77870000000000    3.83819999999992
C         3.79700000000021    2.56850000000016    1.19669999999937
H         4.20020000000001    3.57089999999991    1.37680000000008
H         4.56740000000010    1.95559999999983    0.72109999999993
H         2.95240000000012    2.63260000000004    0.50540000000008
C         2.05039999999996    2.50089999999998    3.09319999999872
O         1.03749999999980    1.81620000000008    2.31910000000010
C         1.89100000000010    4.00450000000012    2.88650000000043
H         1.87289999999998    4.25440000000014    1.82409999999959
H         0.94940000000004    4.34260000000002    3.33170000000045
H         2.71079999999999    4.55149999999977    3.36630000000019
C         1.82470000000012    2.13199999999990    4.56519999999986
H         1.92609999999997    1.05330000000011    4.71320000000007
H         2.52610000000015    2.65279999999992    5.22540000000007
H         0.80629999999995    2.41579999999996    4.84899999999992
B         2.27820000000019   -1.33089999999983    0.17410000000011
O         2.89460000000011   -2.57739999999963    0.38449999999971
C         4.26929999999974   -2.48200000000027   -0.07210000000069
C         5.10900000000030   -2.05380000000019    1.14010000000096
H         4.76350000000001   -1.08740000000014    1.51749999999987
H         4.98050000000000   -2.79470000000027    1.93589999999945
H         6.17420000000008   -1.99290000000007    0.89299999999976
C         4.71950000000124   -3.84659999999899   -0.58469999999480
H         4.75279999999997   -4.56130000000190    0.24420000000115
H         5.72329999999967   -3.78370000000027   -1.02009999999966
H         4.03499999999732   -4.23600000000102   -1.34170000000077
C         4.16439999999733   -1.36220000000288   -1.16300000000261
O         3.08519999999943   -0.55029999999763   -0.65399999999878
C         5.40719999999955   -0.48870000000235   -1.31549999999900
H         6.27320000000189   -1.09010000000009   -1.61530000000008
H         5.23300000000028    0.26929999999994   -2.08590000000190
H         5.64269999999978    0.02650000000188   -0.38239999999961
C         3.71800000000017   -1.89830000000057   -2.53110000000534
H         2.82529999999756   -2.52160000000246   -2.42740000000024
H         3.46089999999981   -1.05249999999677   -3.17550000000063
H         4.50570000000322   -2.48289999999710   -3.01790000000039
H        -3.38500000000084   -4.00129999999887   -2.59310000000152
H        -5.21400000000031    1.52080000000072    1.29959999999987
C         0.23589999999917   -1.68140000000024    2.96029999999938
C        -1.09428086750424   -1.70862763107582    3.45131049909925
C         1.01323054175255   -2.17067786268287    4.01661794488209
C        -1.08650946145830   -2.15869228208115    4.74229343760972
H        -1.99251891010706   -1.44050016305378    2.92426189235370
N         0.19924027845685   -2.43758417152809    5.09930351776012
C         2.42982958764205   -2.58134230165694    4.02038943352017
H        -1.89737175743672   -2.31371602888461    5.43218399076694
C         0.53070874914817   -3.19518849024978    6.28199729269614
O         2.82941435730567   -3.39463557353542    3.19394317819467
N         3.27249613124665   -2.12431435289997    5.02284946052634
H         0.04164270897849   -4.17326571074134    6.24481311549759
H         0.18553320236368   -2.66779271906857    7.17241584118101
H         1.60605968448509   -3.34514560689664    6.33448557558801
C         4.70381229515475   -2.33649076016105    4.78920208497482
C         2.93141383700758   -0.99054964826020    5.86929671099694
C         5.53375355316587   -2.68943738332576    6.02237941859852
H         5.10444255063116   -1.43464634102982    4.31618069090636
H         4.77214187224063   -3.16061471557476    4.07476441299548
C         2.99742613689592   -1.24226119636321    7.38752475291427
H         1.92377362671943   -0.67219223522206    5.59237499766482
H         3.62992618106389   -0.18636917970420    5.62749519970310
C         6.95654592745702   -3.10360701585954    5.64181454714869
H         5.06408682911347   -3.52696140976479    6.54446820598348
H         5.58087574044623   -1.84046145804768    6.70845058401204
C         3.78484648208134   -0.15832688800908    8.13130603740958
H         3.45743957093586   -2.21333973221170    7.57829949277751
H         1.98751850429633   -1.27134720022265    7.80379015033845
C         7.76083027330299   -2.04610631044954    4.87556690332716
H         6.90800912454493   -4.00323682859856    5.01947050579394
H         7.49329707901052   -3.36963827287158    6.55589915157453
C         3.04804380383621    1.17908239914063    8.18740811223798
H         4.75367405737176   -0.00791921893176    7.64787638618454
H         3.97929365852454   -0.49879221670139    9.15291828250311
C         7.90789516973770   -0.69651860961867    5.58199207910783
H         7.29411026834020   -1.88151959861741    3.90001472813650
H         8.76019564570705   -2.45312142878348    4.69127503195198
C         3.91261394844832    2.28679479343310    8.78546334075449
H         2.13876711848254    1.06785755871164    8.78510854884875
H         2.74394587183720    1.47060986842633    7.18015338646836
C         8.66511487903549   -0.78105092940072    6.90023859395424
H         6.92104164709178   -0.25951753780353    5.75265872192427
H         8.44634050378249   -0.02105326391921    4.90929844874678
C         3.18892371204709    3.62558249809130    8.81578076384669
H         4.82845899102469    2.38768500363444    8.19362693404652
H         4.20869302974313    2.01005313412108    9.80173698096260
H         8.11482873977544   -1.36811948575338    7.63396503533049
H         8.82195842704716    0.21691115853361    7.31212860347547
H         9.64077731128201   -1.24458050924711    6.74980505912673
H         2.90164967035937    3.92924616218480    7.80841710356093
H         3.83013613320278    4.40017411278010    9.23681137388021
H         2.28510311338188    3.56152592235952    9.42243700614209
