137
 energy: -185.377758278280 gnorm: 0.000496175447 xtb: 6.4.1 (1a32961)
N        -0.79714190375414   -2.21206864554754   -0.33598520712848
C        -2.06841491288460   -1.84711949052544   -0.58615793881303
C        -2.89166560742593   -2.62310635401893   -1.41422781627527
C        -2.39445173222140   -3.76692201509528   -1.99722288027338
C        -1.07192689041619   -4.12215648439514   -1.74155884733195
C        -0.32553400578742   -3.31750209318307   -0.90551802680956
H         0.70158794137524   -3.55888353613873   -0.67340553699427
H        -0.63909270053106   -5.00865795202512   -2.17633888051126
H        -3.91539700529001   -2.33810151784411   -1.59378171822832
C        -2.52063271035960   -0.61629537651408    0.04437356522038
N        -1.65742164256802   -0.01731287182822    0.89566346037816
C        -2.04223491947210    1.11032902431232    1.49450586312393
C        -3.26954291017925    1.70528980587821    1.29195262353117
C        -4.16171842934393    1.10922091360531    0.40292364997177
C        -3.77614510766474   -0.05477665105194   -0.22438989410862
H        -4.44491397254450   -0.52569910630735   -0.92586448648082
H        -3.52891561942591    2.61078360913096    1.81633077324338
H        -1.31387399519593    1.54648802071336    2.15935707625276
Ir        0.42150000000042   -0.81650000000140    0.91329999999942
H         0.87259999999997   -2.23029999999963    1.54049999999902
B         0.42228126512413    0.44422111902849   -0.75202691784405
O         0.09819797784159   -0.05575976033307   -2.00377352670543
C        -0.17319432017633    1.01103218669895   -2.91774361909450
C         0.48202314457646    0.70480661058842   -4.26429378739918
H         1.54274413399390    0.51022803850514   -4.14662814629310
H         0.33646765417497    1.53450084478752   -4.95109683682780
H         0.02054418596739   -0.18524512258692   -4.68600022736615
C        -1.69583071569883    1.06203126425237   -3.11337279451114
H        -1.97557250123027    1.83509777356172   -3.82299323222960
H        -2.03007710645256    0.09717206119776   -3.49057753869710
H        -2.19380538593515    1.24014650364679   -2.16284452829349
C         0.39480621241388    2.26899216994137   -2.17200196141614
O         0.51664885471513    1.81418306956633   -0.82000255591313
C         1.79940132248894    2.66448439012549   -2.64532634624359
H         2.47685175009052    1.82450051506236   -2.51412779672353
H         1.79134290133439    2.98294964767239   -3.68366049664825
H         2.15978845709052    3.48488084571841   -2.02849555736989
C        -0.50728621764657    3.50336914473179   -2.20869023880325
H        -1.46197616509775    3.30748166674281   -1.73025634893932
H        -0.02112668125230    4.31063222634143   -1.66612661595351
H        -0.67152180772626    3.81926399480074   -3.23557738036393
B         1.40034677820092    0.75141832943540    1.88014870839276
O         2.73961373531486    0.89409347374664    2.18439869807510
C         3.03776335636698    2.29064521467630    2.31888846923319
C         4.14050349326003    2.50993618737531    3.35041611273687
H         3.87391093237524    2.08367294560258    4.31052527086284
H         5.04964171385715    2.02944274594759    2.99951565579742
H         4.32811578155536    3.57431765343725    3.46695660756873
C         3.53125775244920    2.75677542241732    0.94431289411676
H         3.81357118401503    3.80575093674803    0.95171773939485
H         4.39014909341403    2.15123360298274    0.66803792671312
H         2.75184947096706    2.57055576746443    0.21135858142357
C         1.64652656784714    2.90388970802001    2.69034098239933
O         0.73680816144858    1.91958875699922    2.18816451572715
C         1.34209938992947    4.24789595711540    2.03105224918169
H         1.25782938729879    4.12281533251004    0.95685566765887
H         0.39309466115437    4.62455181041883    2.40465569363931
H         2.12188680851573    4.96887930099505    2.26085233869168
C         1.41615808125433    3.01299828698887    4.20245740760621
H         1.59093288295639    2.05016959414781    4.67442101931400
H         2.06284350408017    3.76681427303099    4.64160058107037
H         0.37996461820549    3.29121288974266    4.38057497833640
B         2.27819999999934   -1.33089999999841    0.17409999999827
O         2.65783481675853   -2.63949845165752   -0.05718178926081
C         3.99154490945051   -2.68816275290615   -0.57460602981471
C         4.90965527734547   -3.02687997605373    0.60379352408543
H         4.85807360007935   -2.22868889948818    1.33863842908921
H         4.53927608949223   -3.93380586799754    1.07573878639752
H         5.93444531966014   -3.17734391158500    0.27798886266976
C         4.09232001646973   -3.78695657220729   -1.63042770821259
H         3.93683716933584   -4.74874610761682   -1.14814273529101
H         5.07824047980562   -3.77704560347195   -2.08727038549490
H         3.33492625349567   -3.66313360433541   -2.39776500919633
C         4.20510471187779   -1.22907928043980   -1.09864988780059
O         3.22895630987403   -0.48440746068902   -0.35844240709164
C         5.59678708907655   -0.64972014413252   -0.85012224191184
H         6.35326464489876   -1.28333329615690   -1.30493476057735
H         5.65291943391911    0.34138876776336   -1.29320758492298
H         5.78887816167233   -0.55636037587431    0.21276763467182
C         3.85686642096763   -1.07971426652958   -2.58621818495534
H         2.83650548856568   -1.41419183666219   -2.75883031027590
H         3.91867049838758   -0.02689659633923   -2.85347024139812
H         4.54611986161509   -1.63995376306447   -3.21115573090763
H        -3.01864367910933   -4.37480700602929   -2.63503938524338
H        -5.12944470122773    1.54604258454037    0.20673676434110
C         0.23590000000848   -1.68140000000519    2.96030000000296
C        -1.06061470413864   -1.61530666296558    3.54200914428986
C         1.03495323968217   -2.27384067533812    3.92769661996648
C        -0.99092155707204   -2.13698633948680    4.80380498939840
H        -1.94995386505742   -1.21966797877510    3.09208739038154
N         0.28433989475524   -2.54054075368946    5.04333387266775
C         2.44656497625531   -2.73493553677534    3.82027411094562
H        -1.75649972587568   -2.25870500178969    5.54585223394685
C         0.66661643702246   -3.36391492876645    6.15975642837409
O         2.71583367310137   -3.76440986143026    3.20558747302585
N         3.38701148017805   -2.01267572581237    4.46330875791242
H         0.09277998848585   -4.29405932300881    6.15019106438375
H         0.47933732850541   -2.84753312958257    7.10227681451909
H         1.72186100122400   -3.61164858367178    6.08156640362877
C         4.78035142743345   -2.39910893298834    4.33209993645170
C         3.10650892034105   -0.75573941617237    5.12894630542396
C         5.39651432722110   -2.91391936881130    5.63513593598164
H         5.34048613468953   -1.53693541558130    3.96064029421152
H         4.81716505207289   -3.19331420846641    3.58363744234719
C         2.85034197603606   -0.91100313320086    6.64214707731409
H         2.25256703554950   -0.29599489669144    4.62783309053814
H         3.97565688025978   -0.11500795349488    4.96873786995056
C         6.77505578834429   -3.54105358621814    5.41743537137836
H         4.73747234473445   -3.68173498767846    6.04759726291421
H         5.46979599875492   -2.10569713666667    6.36156580610664
C         3.64166964132678    0.06477644992241    7.51606222013770
H         3.12415000216861   -1.92412652810153    6.93464257715817
H         1.78802779848668   -0.78189086804254    6.84779317638947
C         7.84676798297113   -2.58354200119985    4.88943197000153
H         6.67340415172344   -4.36297778613475    4.70456987134561
H         7.11228123460172   -3.97066345005586    6.36249685003218
C         3.11201329913127    1.49515012766133    7.46274593172678
H         4.69215766789307    0.05827373086855    7.21714453707137
H         3.59444247303045   -0.28304134446054    8.55113199105534
C         8.13787206103377   -1.37603566630678    5.78311602634763
H         7.55007038316995   -2.22579585600340    3.90209423535262
H         8.77188771702124   -3.15179245302100    4.76237018336468
C         3.88488748422383    2.42281670068565    8.39896744859386
H         2.05661783366838    1.49926965453055    7.74452134114610
H         3.18189905614287    1.87683617912798    6.44362245886103
C         8.70260281921866   -1.75651556403424    7.14756681874726
H         7.22950028247849   -0.78717402103226    5.91692256469304
H         8.86247077010789   -0.74031447474161    5.26743063492081
C         3.34521367353705    3.84799078742930    8.36213941567774
H         4.93933804686465    2.42738821154588    8.11340345219687
H         3.82147686584962    2.03889487699479    9.42016133189615
H         7.97446086563330   -2.31344848978638    7.73122339157652
H         8.97280546798984   -0.86285676238011    7.70636636192720
H         9.59380011830461   -2.37017449171644    7.03218335769786
H         3.41998018656275    4.25754734420187    7.35732432521668
H         3.90842096887107    4.48843082440692    9.03733641415665
H         2.29955631028886    3.86743610230424    8.66178202350736
