27
 energy: -37.384380425398 gnorm: 0.000146500118 xtb: 6.4.0 (f63f532)
C         0.55122740783871    0.58246365085793   -1.25948713318667
C         0.92113932226994    1.13713814169355   -0.04303897398262
C         0.52669181993182    0.48501114246716    1.11437982856553
N        -0.17936222507732   -0.63281779442382    1.11766986516380
C        -0.53609522264156   -1.16898142685491   -0.04419314265440
C        -1.30269795045645   -2.45621105858610    0.01938272350828
C        -0.33513871305320   -3.65549356152409   -0.00018360193595
C        -1.09642189947848   -4.94475738579790    0.11535913945958
C        -1.50031623089569   -5.63764898749323   -1.01895719359354
C        -2.23140966431137   -6.80805811342164   -0.90959627014990
C        -2.57040612300838   -7.30090672847735    0.33921327064369
C        -2.17427089817759   -6.61659810740775    1.47656792804224
C        -1.44349550110697   -5.44711236759073    1.36391216843386
C        -0.18737835696644   -0.58798557464724   -1.26160270537454
H         0.83250299929542    1.05637692997972   -2.18910823168379
H         1.49708335857264    2.04776644238390    0.00644514813864
H         0.78415619599538    0.87200229189800    2.09244917934885
H        -1.98708860409632   -2.53092112525766   -0.82720016646917
H        -1.87658530913003   -2.48180140290176    0.94589574883820
H         0.35914795805166   -3.55281071854001    0.83565418655995
H         0.23809013009874   -3.63834295304597   -0.92946932486463
H        -1.23714029480474   -5.25935979128887   -1.99694667986176
H        -2.53609426107848   -7.33754451638533   -1.80094206558149
H        -3.14008045898836   -8.21464855502640    0.42601902685146
H        -2.43456781496486   -6.99645243703166    2.45403159127387
H        -1.13534140480978   -4.91618287562470    2.25344280867436
H        -0.49507825900827   -1.04711311795310   -2.18888712416391
