129
 energy: -190.252393445128 gnorm: 0.006562140233 xtb: 6.4.1 (1a32961)
N        -0.96510000000021   -2.11530000000195   -0.24090000000254
C        -2.24700000000094   -1.69840000000187   -0.36220000000004
C        -3.14039999999940   -2.36819999999757   -1.21199999999767
C        -2.70219999999877   -3.47560000000230   -1.93050000000189
C        -1.37780000000120   -3.89879999999665   -1.78759999999589
C        -0.54289999999919   -3.18669999999862   -0.93509999999658
H         0.49809999999954   -3.45629999999952   -0.78939999999966
H        -0.99569999999964   -4.76029999999912   -2.32769999999888
H        -4.16499999999857   -2.02889999999908   -1.31830000000013
C        -2.62129999999996   -0.50949999999872    0.44100000000001
N        -1.62599999999992    0.07329999999876    1.16020000000052
C        -1.89679999999875    1.15239999999931    1.91690000000062
C        -3.17230000000076    1.70330000000087    1.99649999999932
C        -4.20509999999977    1.11739999999955    1.26270000000021
C        -3.92609999999828    0.00250000000078    0.47820000000008
H        -4.71959999999999   -0.46419999999985   -0.09520000000011
H        -3.34630000000000    2.57509999999962    2.62069999999874
H        -1.04450000000017    1.57419999999988    2.43690000000015
Ir        0.42150000000001   -0.81650000000055    0.91330000000017
H         0.87260000000017   -2.23030000000008    1.54049999999971
B         0.50670000000079    0.41559999999945   -0.81539999999986
O         0.19499999999989   -0.04700000000194   -2.09149999999953
C         0.00649999999836    1.10039999999773   -2.95430000000138
C         0.49020000000100    0.74740000000414   -4.35779999999953
H         1.51609999999936    0.37380000000065   -4.33700000000001
H         0.44730000000011    1.62240000000019   -5.01670000000035
H        -0.14740000000014   -0.03390000000209   -4.78429999999939
C        -1.50120000000049    1.39559999999579   -2.96669999999945
H        -1.75370000000009    2.21460000000125   -3.64850000000052
H        -2.03200000000116    0.49449999999688   -3.28929999999962
H        -1.85170000000025    1.65210000000022   -1.96219999999941
C         0.84229999999853    2.20670000000101   -2.22039999999814
O         0.75200000000062    1.78260000000057   -0.83690000000049
C         2.32930000000089    2.18620000000059   -2.59900000000184
H         2.74130000000066    1.18500000000338   -2.45750000000033
H         2.48869999999991    2.51299999999924   -3.63179999999959
H         2.87200000000054    2.86269999999946   -1.93199999999920
C         0.28439999999847    3.62290000000036   -2.33660000000130
H        -0.72650000000109    3.69039999999953   -1.92909999999977
H         0.92130000000005    4.31479999999971   -1.77610000000112
H         0.26429999999988    3.94810000000014   -3.38320000000345
B         1.56299999999974    0.60960000000024    1.84840000000020
O         2.92779999999992    0.55230000000001    2.15019999999994
C         3.36330000000058    1.88660000000037    2.50259999999996
C         4.53139999999986    1.78590000000024    3.47740000000003
H         4.27909999999997    1.16089999999998    4.33689999999977
H         5.39390000000006    1.33790000000021    2.97340000000008
H         4.82390000000020    2.77869999999997    3.83819999999999
C         3.79699999999990    2.56849999999994    1.19669999999945
H         4.20019999999985    3.57090000000001    1.37680000000008
H         4.56739999999990    1.95560000000009    0.72110000000029
H         2.95240000000012    2.63260000000013    0.50539999999999
C         2.05039999999987    2.50090000000004    3.09320000000002
O         1.03750000000003    1.81620000000018    2.31910000000021
C         1.89099999999960    4.00450000000004    2.88650000000046
H         1.87290000000005    4.25439999999993    1.82410000000022
H         0.94939999999986    4.34259999999989    3.33170000000001
H         2.71079999999993    4.55149999999997    3.36630000000017
C         1.82469999999985    2.13199999999990    4.56520000000001
H         1.92609999999998    1.05329999999975    4.71320000000004
H         2.52609999999998    2.65279999999986    5.22539999999984
H         0.80629999999979    2.41579999999977    4.84899999999990
B         2.27820000000059   -1.33089999999971    0.17410000000039
O         2.89460000000056   -2.57739999999944    0.38450000000000
C         4.26929999999943   -2.48199999999980   -0.07210000000478
C         5.10899999999846   -2.05380000000006    1.14009999999516
H         4.76350000000004   -1.08739999999952    1.51749999999957
H         4.98050000000014   -2.79469999999866    1.93589999999687
H         6.17420000000060   -1.99289999999974    0.89300000000021
C         4.71949999999830   -3.84660000000047   -0.58470000000674
H         4.75279999999944   -4.56130000000054    0.24420000000585
H         5.72329999999919   -3.78370000000039   -1.02010000000234
H         4.03500000000111   -4.23600000000016   -1.34170000000023
C         4.16439999999808   -1.36220000000613   -1.16299999999702
O         3.08520000000068   -0.55029999999995   -0.65399999999876
C         5.40720000000167   -0.48870000000663   -1.31549999999867
H         6.27320000000292   -1.09009999999509   -1.61529999999944
H         5.23300000000021    0.26930000000214   -2.08589999999956
H         5.64270000000011    0.02650000000209   -0.38240000000154
C         3.71799999999730   -1.89830000000140   -2.53110000000024
H         2.82530000000101   -2.52160000000030   -2.42740000000102
H         3.46089999999946   -1.05250000000469   -3.17549999999903
H         4.50569999999746   -2.48289999999762   -3.01790000000019
H        -3.38499999999924   -4.00130000000064   -2.59310000000254
H        -5.21400000000001    1.52079999999940    1.29959999999996
C         0.23589999999723   -1.68140000000182    2.96030000000031
C        -0.91460972937488   -2.46115808382738    2.74600844332661
C         0.48272411639616   -1.40417215601293    4.37691060729862
C        -1.93966903978390   -2.77747238587381    3.63219078137898
H        -1.06646397979034   -2.90778319840054    1.77426443569929
C        -0.62245054155975   -1.70829381624731    5.23104743921179
C         1.49178774139861   -0.96076617091461    5.36152771600514
C        -1.83160435145757   -2.32260309591493    4.92134788678386
H        -2.78494263635115   -3.36912783512914    3.30572683661173
N        -0.35757109051201   -1.43117527896614    6.54184731402370
C         0.93054750986830   -1.03741021197745    6.61522496228224
C         2.95265388105023   -0.54176523413542    5.49528921991333
H        -2.57249133912723   -2.48663829304635    5.69064829414929
H        -0.97292992708453   -1.62114373257474    7.31518783148861
H         1.39055395160927   -0.84781512100586    7.56807352238961
C         3.28749234167714    0.47044909158866    6.66351249648586
H         3.33741654752541   -0.23349204046230    4.52203052686956
H         3.53739473131732   -1.43399265921541    5.74898844644267
N         2.22585408349759    1.38554427699790    7.09966925341088
C         4.60984790606270    1.22359747168785    6.43868818525518
H         3.54282220705776   -0.15242223835798    7.53282719884615
C         2.30956631430448    2.65161294760633    7.60941858716975
H         1.34802147354605    1.23078505520784    6.62185071570492
O         5.68460144755823    0.66502459907442    6.47746485280266
O         4.47623737096868    2.54625140039093    6.26183812475242
O         3.16621958835031    3.07525850070372    8.35852640044006
O         1.21843913089342    3.35273561377654    7.21465462297198
C         5.63712003860304    3.37397607487340    6.17692968783423
C         1.13407698563402    4.80816939835536    7.17033643502752
H         5.36827271165824    4.21642065153163    5.53704384832578
H         6.47775372259932    2.81800578486631    5.75617426502895
H         5.89049606918770    3.73916341962384    7.17420354088836
C        -0.19152417690927    5.07063706131464    6.44430637572353
C         1.10833846104463    5.44397006979674    8.56427716771475
C         2.28651760607765    5.40875837815762    6.35716704664001
H        -1.02406345550898    4.65434326420435    7.01094734386670
H        -0.17619458193125    4.60777821898779    5.45865209506037
H        -0.34270166327182    6.14247955967575    6.32523914271516
H         0.29731148456000    5.02988731212130    9.16254060095899
H         0.95525169416831    6.51879054657976    8.45610731424521
H         2.05521584453962    5.27135673336517    9.07591883169273
H         2.32276551044318    4.95957428045358    5.36779154117762
H         3.23907661674247    5.24536625199654    6.86058199273264
H         2.12595198358424    6.48091086516157    6.24623440704170
