129
 energy: -190.365331788107 gnorm: 0.001089877916 xtb: 6.4.1 (1a32961)
N        -0.91387898264755   -2.35460382412618   -0.07351509036842
C        -2.13582822073012   -1.93766151514246   -0.44628576962279
C        -3.04295626169281   -2.81278418050681   -1.05787013970530
C        -2.66908937680344   -4.11350422218264   -1.31567919298750
C        -1.38554844532165   -4.51903644765078   -0.96085991338244
C        -0.55743493955687   -3.60499892461020   -0.33995425196277
H         0.44196241882033   -3.88272383780128   -0.03633924410256
H        -1.04605416398341   -5.52412317469922   -1.15137087733525
H        -4.03691558834360   -2.47918332921587   -1.30892983910532
C        -2.46080473889083   -0.54083236361341   -0.18549801269561
N        -1.66238066100940    0.11962451331649    0.68038156643930
C        -1.96139585402505    1.38590369563351    0.96712245636339
C        -3.00490467962977    2.07677749858717    0.38700139269211
C        -3.79192217114400    1.42531960084399   -0.55907158579980
C        -3.51645907130199    0.10357043322498   -0.83931470318488
H        -4.10240700365762   -0.42186280303397   -1.57640365520136
H        -3.20077909414806    3.10042891769550    0.66213005773098
H        -1.31417582608853    1.86085434097630    1.68646204529766
Ir        0.42149999999799   -0.81649999999369    0.91329999999422
H         0.87259999999637   -2.23030000000338    1.54049999999939
B         0.49623911717486   -0.00797254427317   -1.04063567429841
O         0.17317415144270   -0.88623725708270   -2.06084978939633
C         0.15169769189429   -0.21681946230135   -3.32510728356279
C         0.87675959771478   -1.08298787579525   -4.35529823589875
H         1.87703039545873   -1.32902963065043   -4.01431393458056
H         0.93303563076572   -0.57027922716924   -5.31168614493948
H         0.32488367689672   -2.01104561456017   -4.48696294130558
C        -1.31842056709142   -0.07879931767299   -3.74439946560628
H        -1.40436409818854    0.39241258607925   -4.71895888939522
H        -1.75973139548488   -1.07264543387969   -3.79125157673475
H        -1.86942007236288    0.49942563614670   -3.00640675431918
C         0.84008633648503    1.15659898168473   -3.00737723112656
O         0.78145154599780    1.22296635464293   -1.57356846023664
C         2.32189042462081    1.18726246484917   -3.40195687583182
H         2.85445116389919    0.41307396773906   -2.85710816977813
H         2.44763705795230    1.05322528069920   -4.47214143422686
H         2.74382330429796    2.14913222824565   -3.11993294897164
C         0.14312769026694    2.37807610987880   -3.60625913874897
H        -0.87056045668969    2.48001354423582   -3.23250394080880
H         0.69528871297416    3.27240280980866   -3.32812294214499
H         0.12627739934567    2.30079069218529   -4.69026942894979
B         1.42721112255056    0.95466912547731    1.43202014874795
O         2.78398718109821    1.16027977809794    1.67888014454506
C         3.15025507207269    2.49489403723381    1.29267304415142
C         4.18778936687883    3.06471280535512    2.25846543732023
H         3.83352584237429    3.08233801153542    3.28316560803149
H         5.07414002023082    2.43787869242312    2.21764645841205
H         4.45966515931803    4.07113041899161    1.95113457824940
C         3.79012839284864    2.38136092866689   -0.09381947514379
H         4.07414058499631    3.35402994399674   -0.48393360868522
H         4.67708636132445    1.76046649147968   -0.00788826675578
H         3.09825713825707    1.88086499329618   -0.76238253793747
C         1.77493179716461    3.24553536840712    1.27281130149439
O         0.82386903249641    2.17319944385302    1.26280759847865
C         1.53890720955255    4.10494918364923    0.03056765345749
H         1.48306646729865    3.46990466551433   -0.84654116816969
H         0.58970090376401    4.62460353203650    0.13365216742092
H         2.33048980907090    4.84021162273469   -0.08333611080952
C         1.52916098532311    4.09209739974191    2.52488207961785
H         1.62663406489547    3.48131757714406    3.41714747902317
H         2.22414658978521    4.92565715433903    2.56645066721293
H         0.51521216921512    4.48284219253932    2.48565962825922
B         2.27820000002020   -1.33090000002252    0.17409999998546
O         2.66464150633999   -2.63164413075577    0.46655188714190
C         3.80994834387169   -3.02632100676255   -0.29277901444870
C         4.79291838348855   -3.75290861710838    0.62454429468893
H         5.10150065539112   -3.11803437884536    1.44725200253778
H         4.29893252949863   -4.62822763181461    1.03844474777884
H         5.66600983792768   -4.07321701678583    0.06321010976252
C         3.31134082536127   -4.00606500250916   -1.36509315836262
H         2.87997585100772   -4.87061613663169   -0.86572768493397
H         4.12210392572369   -4.34136009801729   -2.00387845934086
H         2.53331119281650   -3.53817424755173   -1.96366723177329
C         4.32098442826303   -1.66198013066381   -0.87343214086327
O         3.19642676625705   -0.77920396107887   -0.68346270832317
C         5.50892224316403   -1.08363992933057   -0.09881716138875
H         6.37137822814801   -1.73888437309886   -0.17017828165260
H         5.76989074440109   -0.12031539369028   -0.52912143088012
H         5.25298938247791   -0.93191497036770    0.94569283480867
C         4.69181877721576   -1.71275375798375   -2.35611920333180
H         3.84374271820462   -2.00432178793722   -2.96724916164942
H         5.02601795798383   -0.72921929268441   -2.67599210936636
H         5.50173149573810   -2.42139237798061   -2.50589072737990
H        -3.35897165299667   -4.80151724388093   -1.78082863836717
H        -4.59816594677590    1.93849500349416   -1.06169346041652
C         0.23590000006218   -1.68140000002868    2.96029999989836
C        -1.14639124966456   -1.83966881306104    3.09724648234272
C         0.97932598336562   -1.97459470735702    4.12505154137814
C        -1.79887918368048   -2.17384570632593    4.28483607678004
H        -1.79553292351789   -1.71221335247035    2.24516522810730
C         0.29962107582799   -2.39903366625333    5.30740653396909
C         2.37141429087282   -2.03015535547961    4.45630522088221
C        -1.08106802324069   -2.47988359532021    5.41616084627182
H        -2.87950566781417   -2.22479935068088    4.29529020864281
N         1.22559364493493   -2.72377593076948    6.25039363560948
C         2.46572345077060   -2.49496774609653    5.73877232644511
C         3.54586885152419   -1.51487013040277    3.69298094277554
H        -1.55646887591687   -2.78455339001138    6.33670829341953
H         1.02121773566087   -3.02406017374558    7.18754409640432
H         3.34221547960218   -2.67914585869743    6.33012609551825
C         4.10913545886380   -0.31632270170648    4.47740848794713
H         3.24110609397460   -1.19184885853084    2.69698588942085
H         4.32454512494515   -2.27457847236076    3.60951531353934
N         3.17500400297581    0.78331787094988    4.45362657738240
C         5.48611490124224    0.10801297521944    3.98765672922213
H         4.23740152869948   -0.59016804744267    5.53444530684075
C         2.34771417526074    1.02314543566833    5.49153569616988
H         2.86119853475148    1.03295250123545    3.51501754655442
O         6.17250222150295   -0.53368704703448    3.22948333389297
O         5.87240964348791    1.24449214965695    4.55193325755419
O         2.51385110063641    0.59801382710416    6.61856647186289
O         1.36146775557423    1.85500317877934    5.10934319064798
C         7.18792359467191    1.71527857673219    4.25215905068985
C         0.29126069809783    2.22753829192723    6.02022349256577
H         7.41329182416282    1.56136759751948    3.19589985095515
H         7.91696584657859    1.17092145501733    4.85505536720919
H         7.19513412490123    2.77150865925175    4.50621215926828
C        -0.65892476340042    3.07134598227662    5.16763825852607
C        -0.43284701891159    0.97761881360015    6.51836110659927
C         0.84254675780065    3.05358415034840    7.18284911468906
H        -0.88923872952159    2.53744955576904    4.24968885370833
H        -0.19961096492510    4.02227188940904    4.91549001235750
H        -1.57712246568955    3.25652782819423    5.71657718954808
H        -0.76336720035321    0.38058739580744    5.67096416710463
H        -1.29476288574542    1.26577542402163    7.11313159532728
H         0.23285694507037    0.37415219790262    7.12856370937421
H         1.39361081250321    3.91121632172137    6.80282604563216
H         1.51108640630226    2.44925087201804    7.78997942956386
H         0.02093574549248    3.40579659669065    7.79973280234482
