95
 energy: -144.814357547247 gnorm: 0.000194837423 xtb: 6.4.1 (1a32961)
N        -0.91951967099464   -1.99523865744956   -0.42063051437658
C        -2.13860247592301   -1.46685654404842   -0.61826153781860
C        -2.98811203118657   -1.97310969823136   -1.60790050350752
C        -2.57754507904476   -3.03471304526714   -2.38641725677208
C        -1.31682627094487   -3.57682508277072   -2.16285018521031
C        -0.53205684818214   -3.01741684164884   -1.17436731876918
H         0.45537808420644   -3.40339382014509   -0.96393877507946
H        -0.95686589863435   -4.41053008665517   -2.74334480068800
H        -3.96085579364293   -1.54079541826356   -1.77337437113864
C        -2.51575085866646   -0.35424471611561    0.25215834488360
N        -1.58131634904209    0.08242673962014    1.12005615073123
C        -1.89086723238969    1.07459983790279    1.94950643905089
C        -3.12550923987169    1.69355003367022    1.97023143532101
C        -4.09648854497483    1.26384184025947    1.07304205899042
C        -3.78360551759406    0.23485251124388    0.20892925377573
H        -4.52746593884478   -0.11494269292440   -0.48684013997284
H        -3.32484781691196    2.48526197277558    2.67384194410018
H        -1.10008546355215    1.38401757466902    2.61563374145648
Ir        0.42149999999980   -0.81650000000010    0.91329999999992
H         0.87259999999988   -2.23029999999992    1.54050000000005
B         0.43916045666800    0.58410918035816   -0.63497916910560
O        -0.17018346138184    0.28193532157659   -1.83665270898755
C        -0.23732134837629    1.45222779949622   -2.66035117433450
C         0.05738878550271    1.07567702752526   -4.10982384810447
H         0.98398651933017    0.51595777190078   -4.17942055622352
H         0.12215973115481    1.97042538735756   -4.72333633232619
H        -0.74777195875077    0.44918100094594   -4.48591627453414
C        -1.67181957010568    1.98912690177582   -2.55776914277887
H        -1.81161042525327    2.85859913202461   -3.19285249614908
H        -2.35858047354611    1.20565200036595   -2.87185993132268
H        -1.90267332988886    2.24611067446955   -1.52585764609885
C         0.81491541603454    2.39809584339590   -1.99339937676127
O         0.89428294313260    1.87994594070988   -0.65628600685081
C         2.21127879424962    2.24563226315641   -2.60778855893849
H         2.51233721285763    1.20261608690048   -2.54843631914457
H         2.23244043309527    2.59390632493389   -3.63621075469024
H         2.91673856679618    2.82962162651949   -2.02173478067545
C         0.42703064169514    3.87469428861670   -1.95903831786500
H        -0.46755907166970    4.03411527303165   -1.36519652708006
H         1.23706629235008    4.44540173118498   -1.51145705222542
H         0.26061840454379    4.23819063015039   -2.96974585948272
B         1.57732774650928    0.65769678695521    1.83922676764605
O         2.94327087762366    0.78384190756001    1.85060206093105
C         3.31667292397311    2.06823347634617    2.37463866569314
C         4.55199541755547    1.92527219983402    3.26221339986728
H         4.40148237098111    1.17255500047281    4.02881892147200
H         5.39650466480720    1.61986342240385    2.64990437272956
H         4.78642342068347    2.87782815732751    3.72924092409362
C         3.65321654127102    2.94787986264148    1.16530893504514
H         3.93035888267034    3.95326135300181    1.46736353943619
H         4.48553746684882    2.49731111215359    0.62940462995113
H         2.79665601772536    2.96956346642156    0.49702309494604
C         2.01624337596763    2.52924262956317    3.12008190834052
O         1.00493557204632    1.68886524365216    2.54378361571180
C         1.63428331609358    3.99165557324511    2.89854219373708
H         1.41477587278289    4.17342541454905    1.85187874169036
H         0.74265597409567    4.21756542554409    3.47802600068823
H         2.43870322091403    4.64460951191764    3.22524258932028
C         2.04484485072103    2.23689935168781    4.62554352262365
H         2.26412858607021    1.18732393102010    4.80016541742781
H         2.77828231249180    2.85884476436098    5.12924999341209
H         1.06173921581699    2.44504842601798    5.04142871926407
B         2.27820000000046   -1.33089999999978    0.17410000000091
O         3.10483528912026   -2.27498635837670    0.74373578390221
C         4.38975213223578   -2.26623648075443    0.10635850008251
C         5.33776043726937   -1.51913603977629    1.05024241258154
H         4.92186560628649   -0.53872587994157    1.26313990289107
H         5.39483354706051   -2.06966711480237    1.98588042180272
H         6.33439557314726   -1.43249693981883    0.62922859349909
C         4.87840761894674   -3.70386999361400   -0.06969717563725
H         5.02037993592858   -4.14721563867762    0.91232371760330
H         5.82534886643943   -3.71494406851218   -0.60173593370164
H         4.15339986485874   -4.30564811648250   -0.60732092059795
C         4.10956314210733   -1.49055054550249   -1.22970457093086
O         2.86002035485973   -0.83108686472467   -0.96431045526172
C         5.16004399163643   -0.44201650323671   -1.59121240839839
H         6.13742544810715   -0.90557748599625   -1.69065008315458
H         4.89293443640954    0.01940624245353   -2.53846062873831
H         5.19490207456922    0.33363719802354   -0.83426592280851
C         3.88560044418452   -2.41389134254575   -2.43442850665164
H         3.11006881677939   -3.14161841729705   -2.21267636319690
H         3.54908104611869   -1.81227841406650   -3.27531293707554
H         4.80284733719873   -2.92500835700212   -2.71027185047117
H        -3.22407705911550   -3.43432481073206   -3.15288566524022
H        -5.07487811889136    1.71923785945991    1.05296117275017
C         0.23589999999919   -1.68139999999716    2.96030000000002
C        -0.98763790302212   -2.15490904761879    3.44249767527387
C         1.21324717755092   -1.44838690484583    3.94077037490649
Cl       -2.23949261142946   -2.69595682595433    2.37944975266373
C        -1.20516735237324   -2.22352113086559    4.81526885722473
C         0.90679547498279   -1.57797495414840    5.27849049219379
H         2.20654276103927   -1.17073635611505    3.62834903444863
Cl       -2.74456211065106   -2.71836016070626    5.43616536767269
N        -0.29719297059579   -1.93485757564803    5.71754008988884
H         1.63213071476339   -1.39280707786766    6.05818791228847
