109
 energy: -157.507435484506 gnorm: 0.000368730199 xtb: 6.4.1 (1a32961)
N        -0.86413812531554   -2.21957770355200   -0.30760593786171
C        -2.14113205335896   -1.85027973834254   -0.49873727831122
C        -2.96723920497158   -2.54890970905444   -1.38750700763239
C        -2.47107013833027   -3.63829034432141   -2.07166992064716
C        -1.14981267940596   -4.01407612251287   -1.85479680404158
C        -0.39383387864033   -3.27112160696745   -0.96889437291142
H         0.63733947904152   -3.52211110230997   -0.76729122338380
H        -0.72192863146532   -4.86387147058998   -2.36154106663720
H        -3.98907863727913   -2.24593987526058   -1.54492423990746
C        -2.61171365325776   -0.70507032071500    0.27796927544870
N        -1.71579600733712   -0.12439083866108    1.09818334581777
C        -2.11119073611379    0.89142198470704    1.85704117903950
C        -3.39596423300199    1.40013132109514    1.84373759885956
C        -4.32627580707445    0.82786022546513    0.98357286446108
C        -3.92722634411283   -0.23271191050578    0.19697099859684
H        -4.63651126079419   -0.68978387294705   -0.47274480659362
H        -3.66289064949248    2.22128061677712    2.48889540317528
H        -1.35084680965824    1.31503132398945    2.49336119041056
Ir        0.42149999999627   -0.81649999999774    0.91329999999528
H         0.87260000000042   -2.23029999999898    1.54050000000137
B         0.34724373095690    0.43552216104017   -0.73963260346384
O        -0.00495921221190   -0.08772754453523   -1.97555377058605
C        -0.34966980342445    0.97116532990428   -2.87421843005952
C         0.16609016709539    0.65074785954281   -4.27526492331999
H         1.22481232804789    0.41529791119207   -4.25542498490033
H        -0.00865672797097    1.49341837711593   -4.93921346199263
H        -0.36691678465783   -0.21548730061950   -4.66025141266533
C        -1.88358679704856    1.04374149831993   -2.90906098574782
H        -2.22752712955344    1.79494995788940   -3.61380369704174
H        -2.26922874932174    0.07112348410634   -3.20909904669546
H        -2.26975354052107    1.26638776783409   -1.91633851063147
C         0.29943099221722    2.22167999423180   -2.19366814314120
O         0.42163015831988    1.80618616296558   -0.82680843713710
C         1.71838066426758    2.49986321002819   -2.70480615898825
H         2.33008754764001    1.61226932301578   -2.56572586907579
H         1.71157575071145    2.79703710612857   -3.74940182691787
H         2.15387507498158    3.30091573970156   -2.11211217857052
C        -0.52684747024669    3.50374590227261   -2.27766731821770
H        -1.47591784039228    3.39688328448475   -1.76195516040029
H         0.02408754383205    4.31266902140478   -1.80415732851493
H        -0.70550141140008    3.76317745185429   -3.31807306814429
B         1.39362680452808    0.78006995636907    1.83701954471974
O         2.73715021309764    1.00744345834174    2.03509005069162
C         2.94161572360974    2.38153165486923    2.39634033154592
C         4.07182502459108    2.49843727646600    3.41539063447255
H         3.91806221856782    1.81299203427095    4.24294022176963
H         5.01392759807746    2.25292367802734    2.93454351025652
H         4.12709144740137    3.51543395452001    3.79406904800808
C         3.32892815529284    3.10812781943391    1.10338570556047
H         3.52620020680168    4.16143391043820    1.27968668806539
H         4.22188357985834    2.63668462807460    0.70088466009090
H         2.53127222763317    2.98265706008512    0.37583598306609
C         1.53549801268549    2.81003035150797    2.93247224505228
O         0.66806627785113    1.83559461014099    2.34061687718242
C         1.08449062079861    4.20566148960507    2.50447409356749
H         0.95390731816078    4.24633492890875    1.42818604904904
H         0.12977082649672    4.43246577833403    2.97241564676912
H         1.81317283483417    4.94903044548453    2.81604456180969
C         1.40431275485707    2.67878321786573    4.45567458336300
H         1.73279112590052    1.69618181029359    4.78423789578273
H         1.98552241655216    3.44312757053757    4.96276415576823
H         0.35738048289492    2.79340841633811    4.72797176282862
B         2.27820000000837   -1.33090000000469    0.17409999996221
O         2.57729740858161   -2.67303238192971    0.00443059797743
C         3.81051524254115   -2.83559744423264   -0.70477143775553
C         4.87763609751382   -3.22624560201894    0.32287325413706
H         4.96883630229977   -2.44186942662361    1.06650132952735
H         4.55491824825811   -4.13331481251991    0.82779946786067
H         5.83512986417717   -3.40613050220781   -0.15689221808701
C         3.65974210033957   -3.96481943856794   -1.72413489810072
H         3.49546581747337   -4.89766098230170   -1.19048402458920
H         4.56383209417555   -4.05693774408237   -2.31953947924703
H         2.81086896708008   -3.79134627477584   -2.37727413941158
C         4.03652697859947   -1.41049973678195   -1.31404855539360
O         3.21918500218205   -0.57183534452822   -0.48204446361114
C         5.48195991057464   -0.92021704758744   -1.29863103829292
H         6.10677805648664   -1.58899322264461   -1.88447809765923
H         5.52248669514836    0.07358854427815   -1.73660042863395
H         5.86320458506494   -0.85729545777434   -0.28695499256350
C         3.48451187196291   -1.28956554119791   -2.74173763522249
H         2.42379287584643   -1.53002113430741   -2.74485260806303
H         3.59814204182170   -0.25906995446066   -3.07052790766208
H         4.02126111639715   -1.93527471630795   -3.43010442312985
H        -3.09937159268854   -4.18637281124033   -2.75749217711178
H        -5.33873832829113    1.19943993509825    0.93217698483170
C         0.23590000003651   -1.68139999995760    2.96029999999846
C        -0.99116274030702   -2.00136435709779    3.47729630764796
N         1.05607820457621   -1.39368292676774    4.04573978394090
C        -0.94520937500339   -1.86082591304037    4.89049668154064
H        -1.85478361605128   -2.30242734332975    2.91531963332870
C         0.31334371683324   -1.47203829382346    5.21215321539982
C         2.40264168243558   -1.10294062734147    4.05931147927705
H        -1.75492582670728   -2.02974550350923    5.57376582622716
H         0.77616386388162   -1.26589203356455    6.15625334049856
O         2.93333901350171   -0.52348181370855    4.98147984557209
O         3.05224304960474   -1.58450032748438    3.01459762091653
C         6.21714878925833   -0.75888762098614    3.88260832932433
C         6.08536087426275   -2.23430016999232    4.12638821417343
C         6.48045044836944   -0.23965962733070    2.48953930033228
C         7.29736885872637   -1.49695955898067    4.61490456379286
H         3.97692598605845   -1.27914111585702    3.01970606849103
H         5.36635010140841   -2.57379160543611    4.85714088294012
H         6.20726544208927   -2.90611932020083    3.28994590860522
H         5.54592568168432   -0.02286383990605    1.97030786930094
H         7.04807788737410   -0.96962210353672    1.91539334214328
H         7.06387026685444    0.67963097526838    2.53456868950013
H         7.40809196585940   -1.33558166578093    5.67645595897644
H         5.58526362615287   -0.11263534628594    4.48029403902299
H         8.23185835842162   -1.66651451150825    4.10110013134879
