99
 energy: -143.971589962886 gnorm: 0.000206427154 xtb: 6.4.1 (1a32961)
N        -0.91335583439910   -2.01440109918105   -0.38755825843424
C        -2.17072806738434   -1.55421019527718   -0.53228733947263
C        -3.04560864660105   -2.13388647616205   -1.46051253298170
C        -2.61742030733357   -3.18050872741315   -2.24695199497384
C        -1.31176585833466   -3.64042504304852   -2.09097752070319
C        -0.51063365228155   -3.02606271204277   -1.15170939685261
H         0.50665582363775   -3.35340524639771   -0.98945702481865
H        -0.93391672263237   -4.45705372698936   -2.68434063626451
H        -4.05319457937303   -1.76774309111381   -1.56864608139068
C        -2.54853407010773   -0.43257004541384    0.31813481020209
N        -1.60017167632926    0.03238545504180    1.15983640631725
C        -1.90224921383781    1.05060465564954    1.96233748905913
C        -3.13650123129711    1.66707023976067    1.97984704553657
C        -4.12091289744472    1.20921705364371    1.10754343833123
C        -3.81900681305869    0.15528799890612    0.27282506261994
H        -4.56772678754911   -0.21023121075651   -0.41012791008749
H        -3.32829849180606    2.48228948345833    2.65854247235484
H        -1.10278479796424    1.37871190782001    2.60873838429275
Ir        0.42149999999994   -0.81649999999983    0.91330000000004
H         0.87259999999998   -2.23030000000000    1.54050000000012
B         0.38597728641645    0.63886763930768   -0.58254856475164
O        -0.28649697002927    0.38697317558614   -1.76630454205849
C        -0.39970002726416    1.59247299573099   -2.53014808840502
C        -0.20000242603276    1.28623619323702   -4.01212434198508
H         0.71341924418043    0.72202830866093   -4.16798213949856
H        -0.16129680009488    2.21080756442021   -4.58230396574595
H        -1.03460136173486    0.68776215339801   -4.36967291063497
C        -1.82128325456363    2.13052987357773   -2.31086965023625
H        -1.99949235904199    3.02307979004402   -2.90328557590065
H        -2.53344583087213    1.36151364418213   -2.60403157358105
H        -1.97907157556994    2.35115706268421   -1.25690183766498
C         0.69592678342193    2.50425622873843   -1.88823325723463
O         0.83905279553182    1.93847600802030   -0.57829232352622
C         2.05707715941065    2.36076765906883   -2.58008318884410
H         2.34355919337285    1.31176022390234   -2.58702839016248
H         2.03443107502348    2.75910892723694   -3.59042157047103
H         2.80025128213854    2.90324852107503   -2.00041982544677
C         0.32731542750179    3.98267046885647   -1.78393259125414
H        -0.53035664772304    4.13004961942637   -1.13496829167528
H         1.16775175611666    4.53049343873918   -1.36453561403542
H         0.10760089651579    4.38134980441896   -2.77112624107930
B         1.57117886020196    0.63461581952425    1.88208266634160
O         2.93718525241699    0.78822862019369    1.87120082024142
C         3.29577154440266    2.05022706452292    2.45324827961592
C         4.56474734951865    1.89651883047736    3.29000319866844
H         4.46431591683794    1.09225842053920    4.01117913877897
H         5.39868719290079    1.66075867862520    2.63379517509513
H         4.78173652739691    2.82545717822498    3.81041110441326
C         3.56362592512752    3.00704512169710    1.28532145452059
H         3.82745791325596    4.00067083698715    1.63504573428958
H         4.38521377020043    2.60985860726408    0.69341909220383
H         2.68205974990659    3.04399015916381    0.65057067310755
C         2.01227238198626    2.43088895679019    3.26668068283056
O         0.99918005762664    1.62145228256829    2.65437090934395
C         1.60465695035342    3.90046328311441    3.17504926924667
H         1.35430904937479    4.16500081418903    2.15313517074335
H         0.72668820466072    4.06442297783089    3.79510539529195
H         2.40948150121752    4.53663738470000    3.53329781720278
C         2.09098439060660    2.02233474811747    4.74304339472072
H         2.34774394579772    0.97043241146979    4.83043915442579
H         2.81999177410036    2.62404453847031    5.27697755704717
H         1.11345489945322    2.16573490861340    5.19769382436078
B         2.27819999999990   -1.33090000000146    0.17410000000084
O         3.11853028792129   -2.28689284168757    0.70370304386015
C         4.39901681893868   -2.23982470817894    0.06154771784433
C         5.34467739590252   -1.52073840496145    1.02963858642272
H         4.91874407473306   -0.55472373868862    1.28514051480315
H         5.41429428585905   -2.10806629775106    1.94186538128106
H         6.33764482966770   -1.40464839274949    0.60667589579462
C         4.90220295222023   -3.66452019913166   -0.17229251228863
H         5.04546654660512   -4.14668425850729    0.79112188590238
H         5.85098853838916   -3.64392159815756   -0.70096259807991
H         4.18491114196023   -4.25039913269278   -0.73729545746199
C         4.10671915987343   -1.41567358181908   -1.24326517206694
O         2.84705374196069   -0.79074820050465   -0.95535640036451
C         5.13649555720049   -0.33181201980578   -1.55928954691034
H         6.12181265264191   -0.77071935665944   -1.68895299050540
H         4.85130435376211    0.17105456063443   -2.47996931828304
H         5.16179546754253    0.40619828110187   -0.76518713455760
C         3.90575046629066   -2.29230219025242   -2.48689283512126
H         3.13872609647661   -3.03914489093127   -2.30209308078097
H         3.56753387877853   -1.66106409560188   -3.30505411202743
H         4.83238448186576   -2.77875023211719   -2.77591411034343
H        -3.28068388245830   -3.63265471411656   -2.96862787407080
H        -5.09831438420131    1.66698900476567    1.08409246443419
C         0.23590000000005   -1.68140000000023    2.96030000000046
C        -1.05416670548140   -2.07128971349733    3.35049678108986
C         1.21734950122524   -1.54861695800401    3.93419082787482
C        -1.39628167594378   -2.23299824330647    4.67540987094408
H        -1.80993651673553   -2.25634364403311    2.59978660402609
C         0.87555016115639   -1.71302220198698    5.26583507814128
H         2.23411815166606   -1.32638528738435    3.65086012518644
C        -0.43203356985354   -2.04744281460286    5.66747796815074
H        -2.40159101731127   -2.51630076454274    4.95501343264920
S         1.93722448658892   -1.57399736406339    6.64716528660705
C        -0.54075589660777   -2.17962422119608    7.08460561072401
C         0.62723501260594   -1.95784242928109    7.72131067912817
H        -1.45791543209262   -2.43264874697898    7.58692586864296
H         0.82693366614758   -1.99418553504766    8.77441111342396
