99
 energy: -143.975959342991 gnorm: 0.000337292692 xtb: 6.4.1 (1a32961)
N        -0.92779649225627   -2.03560514137519   -0.36767232037249
C        -2.18643567596511   -1.57841005998257   -0.48016891843794
C        -3.05243690471512   -2.08378584861439   -1.45594645510269
C        -2.61790970426533   -3.07523565089611   -2.30970664101556
C        -1.31694982956392   -3.54870199143275   -2.17239317290582
C        -0.51871379699194   -2.99334835647225   -1.19312776825335
H         0.50045381471410   -3.32428824109313   -1.05204516081851
H        -0.93576660765371   -4.32599280643564   -2.81441939385108
H        -4.05253224300151   -1.69577279521499   -1.55695519443811
C        -2.57910260151219   -0.52591382736010    0.45317378942626
N        -1.60196598363976    0.00079865541106    1.21573720696241
C        -1.91001934096970    0.96715932177724    2.07575545596028
C        -3.18947296603354    1.46087962504397    2.23858201354601
C        -4.21218222224801    0.91996009519350    1.46689330333456
C        -3.89964687341125   -0.07805146971722    0.56785204668673
H        -4.68021039824830   -0.51875113990217   -0.02939854110618
H        -3.38337604888977    2.24074252239209    2.95704348282134
H        -1.08171252296913    1.35647788837333    2.64833319072395
Ir        0.42150000000009   -0.81649999999996    0.91330000000016
H         0.87260000000009   -2.23029999999999    1.54049999999991
B         0.35160747057965    0.60059955468995   -0.61350048512834
O        -0.36725807145063    0.33520247454494   -1.76623145226215
C        -0.54345507828038    1.53999278641354   -2.51937665861940
C        -0.41511183380339    1.24030047416896   -4.01042702815648
H         0.49911901462821    0.69335697256970   -4.21570583327747
H        -0.42332522278905    2.16603370876035   -4.57985534999417
H        -1.25609518751184    0.62640817803231   -4.32404829347248
C        -1.96242689351201    2.04789698803246   -2.22367251723218
H        -2.18806907708707    2.94170178046614   -2.79759482994092
H        -2.67359837626840    1.26753437245640   -2.48774211442903
H        -2.06990015949847    2.25624030516817   -1.16086647482652
C         0.56521709527368    2.47173266172005   -1.93094483974770
O         0.78514932531235    1.90604089449531   -0.63099982053489
C         1.89201492128090    2.35616593179207   -2.69081002475511
H         2.19566090509834    1.31242342566444   -2.72145657071157
H         1.81051492548514    2.76071475828993   -3.69548181591112
H         2.65424635335189    2.90745960141247   -2.14527510800001
C         0.17324966911311    3.94217068257107   -1.80289889158411
H        -0.65128448562454    4.07040667464433   -1.10851908589160
H         1.02363811113375    4.50633887158318   -1.42764288962256
H        -0.10708686733942    4.33810537447390   -2.77569258731449
B         1.57842149870392    0.64759980544892    1.85264603204700
O         2.93975556690032    0.82321575253567    1.80452619646398
C         3.29033421197148    2.09921030523159    2.36185489243053
C         4.58891496115590    1.98194828438336    3.15777226662665
H         4.53187229485865    1.17751756683946    3.88343515296660
H         5.40708508770849    1.76488107646580    2.47592222743414
H         4.79844802985348    2.91826389414310    3.66791459993472
C         3.49864299661191    3.04928898271911    1.17657642608027
H         3.75106732190740    4.05190163900638    1.50846106096864
H         4.30957228292886    2.66427283075581    0.56243505891420
H         2.59680370696773    3.05959600017626    0.56988839517163
C         2.02555321471048    2.45968524277356    3.21220138969442
O         1.00882156711640    1.63357767135780    2.62793502093308
C         1.59307878236723    3.92240248496206    3.13494135534848
H         1.31182760997655    4.18486396711394    2.12057909166359
H         0.72970396035614    4.07218596429879    3.77859593985439
H         2.39793873095847    4.56972903875821    3.47252894338168
C         2.15384223557607    2.04593766053475    4.68386739181443
H         2.41705232635463    0.99404118933037    4.75261110892744
H         2.89695368333424    2.64847854902814    5.19705432864315
H         1.19125778423043    2.18049625705469    5.17189169442465
B         2.27820000000153   -1.33089999999859    0.17410000000086
O         3.15533597753929   -2.23549532702115    0.73217394400272
C         4.41506594005942   -2.20133886936089    0.04723756201235
C         5.37765975719597   -1.41188065531193    0.94058593478284
H         4.93840058550848   -0.44325577804401    1.16016849492191
H         5.49380911081147   -1.94766714821180    1.87929875222471
H         6.35159966130547   -1.29787925827364    0.47504097104180
C         4.93884395337948   -3.62773336265829   -0.12281986450983
H         5.12674818830902   -4.05040295974260    0.86055500993909
H         5.86719303056982   -3.62017462851483   -0.68694229803598
H         4.21372582324470   -4.25872500582754   -0.62553172958821
C         4.06635518767368   -1.45852253666524   -1.29201636327045
O         2.80317136586290   -0.84244091150652   -0.99992041282544
C         5.06120344298673   -0.37366674757627   -1.70229259198920
H         6.05083155686897   -0.79893621117450   -1.84389493051596
H         4.73224081851375    0.07178239682481   -2.63774439709627
H         5.09811901192792    0.40721844508391   -0.95087162249490
C         3.84541128328032   -2.40823908330855   -2.47715135816043
H         3.10593060389652   -3.16256546479306   -2.22379957073684
H         3.46228189870080   -1.83225487383526   -3.31590460481139
H         4.77399283627015   -2.88751517171506   -2.77158489789963
H        -3.27371594798877   -3.47155503870032   -3.06991260896119
H        -5.22849459314327    1.26881712701954    1.56943233018407
C         0.23590000000055   -1.68140000000067    2.96030000000123
S        -1.35335405304157   -2.21928422745402    3.47933202362644
C         1.09274337096046   -1.62276951196901    4.01305710875137
C        -0.85319430160212   -2.28172987689122    5.15046049707171
C         0.50541932240860   -1.92629078419297    5.27536016860119
H         2.13104304470554   -1.37011202243508    3.88926904298801
C        -1.62180055629750   -2.62758328597690    6.24927512489569
C         1.08215466800744   -1.92855517158729    6.54800941192188
C        -1.02521821918334   -2.62174172334342    7.49564900861391
H        -2.65991788878970   -2.89778346055861    6.12807565253797
C         0.31760963627597   -2.27388429984527    7.64086064354338
H         2.12249444747909   -1.66040552507755    6.66086753418046
H        -1.60419121594680   -2.89102378110754    8.36646849880861
H         0.76069813482009   -2.27745003605219    8.62626041043585
