105
 energy: -153.032407713594 gnorm: 0.000266903924 xtb: 6.4.1 (1a32961)
N        -0.90102497791111   -2.00669847111949   -0.40635672781969
C        -2.16255718471921   -1.55680824231533   -0.53610217370532
C        -3.02597859614719   -2.10442839866951   -1.49326049254757
C        -2.58474593371988   -3.11805911058280   -2.31560833731226
C        -1.27794649995944   -3.57509553384226   -2.16714816182637
C        -0.48551284385637   -2.98625340357978   -1.20393402982870
H         0.53482521065656   -3.30799509275216   -1.05077921223110
H        -0.89089005303070   -4.36761712584759   -2.78657112301934
H        -4.03291463584407   -1.73632734980144   -1.60009170658767
C        -2.55883715996692   -0.47551435441475    0.35926428708331
N        -1.60443753999290    0.00971150040312    1.17975970526153
C        -1.92024513785931    0.99533789225901    2.01571162001358
C        -3.18013741105938    1.55330379354539    2.09483157571602
C        -4.17604865319757    1.06584144598909    1.25328164288599
C        -3.85728258172350    0.04868356220067    0.37962124661527
H        -4.61659356586260   -0.34250238202638   -0.27674245505873
H        -3.38287103049738    2.34300740714343    2.79998801566690
H        -1.11127680179224    1.34585647005444    2.63785683135834
Ir        0.42150000000032   -0.81649999999981    0.91330000000032
H         0.87260000000011   -2.23030000000014    1.54050000000008
B         0.37432294331029    0.65246842953466   -0.57226680000205
O        -0.33321160366530    0.43599849608300   -1.74260404708169
C        -0.45824287482480    1.66214894513139   -2.47151172293515
C        -0.30551798332761    1.39579871350936   -3.96680242889758
H         0.59437218055774    0.82343236999781   -4.16601958448914
H        -0.26892323165467    2.33625813111455   -4.51056259731335
H        -1.15916122884376    0.82079310556953   -4.31750200487291
C        -1.86810669635624    2.20471388138235   -2.19479374578259
H        -2.05612077274164    3.11630552714888   -2.75427780426313
H        -2.59522341408081    1.45082373342167   -2.49048981668850
H        -1.99307104371890    2.39359523966733   -1.13038992324297
C         0.66443663517646    2.54842279238925   -1.84004515648124
O         0.84654241750507    1.94424766446207   -0.55242978377704
C         2.00151966059853    2.41818919977248   -2.57964818766769
H         2.28072524465640    1.36843932596386   -2.62892117493801
H         1.94862281536850    2.84760638048569   -3.57588379353420
H         2.76679823734090    2.93827229794976   -2.00830845535861
C         0.30877344880879    4.02505020483447   -1.67991360090913
H        -0.52478782300078    4.15679649444382   -0.99707608939734
H         1.16665235601870    4.55620169839644   -1.27465867858133
H         0.05701161652852    4.45397789565638   -2.64650767647755
B         1.55953496598955    0.64170355371846    1.88433273036444
O         2.92591255641274    0.78088851307876    1.90479506567820
C         3.28497038248765    2.04567579004105    2.48131177397601
C         4.52722796087756    1.88322300534867    3.35571611644312
H         4.39289133222127    1.08931143446176    4.08264913840003
H         5.37490949052205    1.62523565452770    2.72626351255248
H         4.74517413319492    2.81528651066681    3.87010169156309
C         3.59887824054323    2.98374943486341    1.30995590546560
H         3.86369265949476    3.97895541301716    1.65427979798068
H         4.43304722907080    2.56987785566893    0.74798636671863
H         2.73673361907642    3.02162647538386    0.64921633177370
C         1.98383506889275    2.45337610586995    3.25320793275592
O         0.97842898734786    1.64597168303980    2.62546420567328
C         1.59734183285165    3.92609002596983    3.12940940870007
H         1.38601446202412    4.17982666513241    2.09618915618107
H         0.70011688943034    4.10875891784115    3.71570985677512
H         2.39677116380049    4.55768267814994    3.50726402308065
C         2.01468258355624    2.06177603848789    4.73619572356473
H         2.23118491429015    1.00188891603654    4.83565398309426
H         2.75008286847215    2.64632891071185    5.28019413389719
H         1.03154304564583    2.24392247289979    5.16372298750146
B         2.27820000000074   -1.33090000000185    0.17409999999936
O         3.13506724592287   -2.26836208572711    0.70818223082204
C         4.40874580318800   -2.21306664348399    0.05217993698121
C         5.35216140644779   -1.46319428753591    0.99875677728133
H         4.91183263862994   -0.50085979592389    1.24320552011746
H         5.44073826749749   -2.03488965371393    1.91911615767120
H         6.33848256143548   -1.33755216143246    0.56327740953935
C         4.93179509050344   -3.63306973579638   -0.16452902423079
H         5.09688909805472   -4.09673562371137    0.80437403019138
H         5.87219027905039   -3.60610496043401   -0.70775791827140
H         4.21607196837292   -4.24002545285272   -0.70878949556157
C         4.09168047499524   -1.41460440283728   -1.26255637534329
O         2.82886498872373   -0.79871737873446   -0.96823949109683
C         5.10479707999002   -0.32492249532418   -1.61041996266729
H         6.09359207366066   -0.75462491028313   -1.74423609246404
H         4.80251264776399    0.15724389111499   -2.53660911595450
H         5.13095765463633    0.42811322513411   -0.83063979798756
C         3.88409938506738   -2.31399015622344   -2.48865272501053
H         3.13239871569598   -3.06993729654218   -2.27960573446301
H         3.52275784702342   -1.70079199884656   -3.31070241910070
H         4.81326795288067   -2.79084979844411   -2.78535372109335
H        -3.23936802178168   -3.54583781882441   -3.05959866948694
H        -5.17588141118423    1.47177235143960    1.28296847912345
C         0.23590000000089   -1.68140000000107    2.96029999999802
C        -1.03071863003964   -2.07596557973162    3.35517464907930
C         1.21422044524329   -1.56851680441130    3.95657377835862
C        -1.36829636065272   -2.30537626587737    4.69337987309209
H        -1.83020865873673   -2.21607687967276    2.64234544433400
C         0.90921189012991   -1.81667924912863    5.27157357281802
H         2.22178334201332   -1.30843510070381    3.67268118162105
C        -0.37341961652786   -2.22486520163630    5.68516548248879
O        -2.69652495062011   -2.54705168587377    4.87525421371808
H         1.69213015889102   -1.75817906634536    6.01143518372531
C        -0.52227389254089   -2.71959002019481    7.06162382029031
C        -3.32294802403765   -2.34165469279570    6.12282592759845
O        -1.21274867911267   -3.69079117879162    7.33960748286418
C         0.28796985143148   -2.02841303285753    8.13447119691050
H        -4.37472563341032   -2.16770468479524    5.89480648289038
H        -2.90398014003783   -1.47136601369059    6.63672847109435
H        -3.22494373816183   -3.21687960027671    6.77131500514523
H         0.39398749082515   -0.96725943506538    7.93286407445148
H         1.27558011150844   -2.48425674011747    8.18321072322383
H        -0.19599771439525   -2.18749351799658    9.09545790256348
