96
 energy: -137.539455090736 gnorm: 0.000163730318 xtb: 6.4.1 (1a32961)
N        -0.90554338419873   -2.02205275721607   -0.37036379581257
C        -2.15901256777118   -1.55660322750742   -0.53375095559531
C        -3.04006128455153   -2.16515710239268   -1.43754094925575
C        -2.62434391479144   -3.25002144074237   -2.17706967765053
C        -1.32341303602730   -3.71693933179691   -2.00092121886995
C        -0.51442472923950   -3.06996129701774   -1.09125426885833
H         0.49993162753608   -3.40047596056070   -0.91679895210052
H        -0.95539428712826   -4.56419663147925   -2.55639271753413
H        -4.04379106283647   -1.79286604355246   -1.56017656384090
C        -2.52651622798297   -0.40208866387823    0.27447305261434
N        -1.58241156759901    0.06590395984684    1.12001910717866
C        -1.87691421925290    1.11406570781423    1.88705911228690
C        -3.09647762180467    1.75823072912332    1.86277066048600
C        -4.07498448238286    1.29773039507376    0.98500014104524
C        -3.78212019922627    0.21266670917242    0.18797403485240
H        -4.52514643970956   -0.15560436615751   -0.49976501117788
H        -3.28136271199544    2.59792639279728    2.51292356730213
H        -1.08243195326130    1.44404109860011    2.53861093696419
Ir        0.42150000000012   -0.81650000000012    0.91330000000013
H         0.87260000000002   -2.23029999999997    1.54049999999978
B         0.43600134996882    0.60554534598708   -0.61035800482395
O        -0.16783840514744    0.30817860153636   -1.81821255518563
C        -0.25044034231556    1.48582783856822   -2.62778575535055
C         0.05186525550669    1.13169146180361   -4.08162877867812
H         0.98485910410316    0.58284664269212   -4.15560821796781
H         0.10914532103919    2.03513432628198   -4.68330435678961
H        -0.74515517757092    0.50136480517831   -4.46886184737532
C        -1.69275915745501    2.00161319024529   -2.52113286763210
H        -1.84653303982993    2.87197318759677   -3.15203132273757
H        -2.36882151625152    1.20934569848422   -2.83713003215471
H        -1.92604343752302    2.25050661698253   -1.48759889009036
C         0.78646040504057    2.43971352164424   -1.94879234256099
O         0.86910003917437    1.91167710398945   -0.61767472340290
C         2.18742376954525    2.31317028345285   -2.55981065466979
H         2.50340722040479    1.27391598867192   -2.50989003446127
H         2.20868117947188    2.67253483073932   -3.58460914251077
H         2.88211100181165    2.90022915822736   -1.96359546826709
C         0.37877531603926    3.91102460154671   -1.90477269789195
H        -0.52301579451562    4.05397354473381   -1.31757237087991
H         1.17727864688299    4.48796832239363   -1.44448277657433
H         0.21667343269276    4.28125071469568   -2.91394155376802
B         1.57847264948262    0.62030176840654    1.90014675569625
O         2.95110675912456    0.71714878513277    1.93889055390348
C         3.33743196945774    1.99223178584331    2.47138117754674
C         4.57846320292243    1.83713469606401    3.34850877025116
H         4.43237569520297    1.06881754431637    4.10028079756543
H         5.42132094122266    1.54643412935835    2.72665712976561
H         4.81163181612560    2.78123604028058    3.83351307904958
C         3.66546238418071    2.88448559588758    1.26828912343318
H         3.96085129929503    3.88233433286722    1.57892666996731
H         4.48190657360249    2.42998415024902    0.71154042268061
H         2.79826614388374    2.92582245987744    0.61410257720672
C         2.04627341665031    2.45161018864035    3.22877622181628
O         1.02187927933169    1.66219875872338    2.60942079256703
C         1.70510374327192    3.93272551076714    3.07708273493820
H         1.49792661900285    4.17281006277520    2.03963656194307
H         0.81665281875358    4.15598231276653    3.66272962887785
H         2.52639010970305    4.54518058725988    3.43949084696300
C         2.06170994710022    2.08538261024031    4.71837897844528
H         2.25173619868966    1.02216173882423    4.83753661840536
H         2.80999070704606    2.66053958051171    5.25495251062772
H         1.08252640119964    2.29962392278095    5.13987101598498
B         2.27819999999877   -1.33089999999984    0.17410000000074
O         3.07604668988620   -2.34294343834971    0.66916185262824
C         4.37038446185027   -2.30409189426848    0.05518910371076
C         5.30928719738807   -1.63117558614196    1.06256481871025
H         4.89893664605596   -0.66182443487200    1.33140374927442
H         5.34324136404346   -2.24169540356122    1.96151251574208
H         6.31447077168664   -1.52844382305945    0.66569171475162
C         4.85152502569480   -3.72975981478728   -0.21352525325779
H         4.97226074768819   -4.24304656222790    0.73682433424960
H         5.80815610470232   -3.71026374083699   -0.72803482047667
H         4.13246791585998   -4.28538644284110   -0.80611949614860
C         4.11900134141358   -1.43365889349837   -1.22551978186571
O         2.89004022896836   -0.75813679932638   -0.91746583207826
C         5.20250115002209   -0.39728367551486   -1.51814239765971
H         6.16467185565938   -0.88423870692801   -1.65064320639118
H         4.94938556832185    0.13548178465185   -2.43135893096754
H         5.26252587568665    0.32437362359525   -0.71097434896315
C         3.87117118164285   -2.27114204239894   -2.48767245405637
H         3.07385641051493   -2.98809835117658   -2.31182834059339
H         3.55274325524488   -1.60735675415090   -3.28798637623906
H         4.77370813489878   -2.78990005169916   -2.79627907138647
H        -3.29319073029933   -3.72671358248875   -2.87742274066814
H        -5.04041183196127    1.77741132421934    0.92866061044967
C         0.23589999999933   -1.68140000000019    2.96030000000166
C        -0.99686239655879   -1.99577839869493    3.42535045940854
C         1.18767192801961   -1.60512647707768    4.01898029814151
S        -1.04145763449590   -2.13619870663192    5.15781256664424
H        -1.91319350165993   -2.16324064627454    2.89373854609440
C         0.66596308809422   -1.80854377556905    5.25465973717777
H         2.22927054855201   -1.40804792028602    3.83686756602224
C         1.34974949591723   -1.78628078468727    6.57716909820013
H         1.17101151246526   -2.71506459850555    7.11722660440449
H         0.97346227668673   -0.96741709582384    7.19004913096525
H         2.42015796229902   -1.65875390962618    6.43606195976798
