11
 energy: -24.446428265783 gnorm: 0.000220260075 xtb: 6.4.1 (1a32961)
C        -1.20237775130341   -0.69162124669667   -0.01943229464558
C         0.00122958626442   -1.38110056156201    0.01666512573561
C         1.15200350042603   -0.61299135406869    0.06350947153766
F         2.35118078448599   -1.21661040495513    0.10209695310047
N         1.18523464186487    0.69990454594324    0.07619888960003
C         0.02893395879225    1.33505128332816    0.03986277386898
C        -1.20179849679708    0.69556122037752   -0.00868355664757
Cl        0.12341199862414    3.05210248905720    0.05759652740045
H        -2.13472819009756   -1.23183076756989   -0.05751486993319
H         0.05828413898483   -2.45602965949043    0.00925182745817
H        -2.11374417124448    1.26634445563671   -0.03734084747503
