22
 energy: -31.892048780338 gnorm: 0.000116237174 xtb: 6.4.1 (1a32961)
C         0.79935345370580    0.24058647802581    1.18955028573923
S        -0.58658464284265   -0.72129903150215    0.86308611246669
C        -0.36231566697441   -0.51387143802188   -0.83217763264862
C         0.72345011778412    0.24355182382051   -1.11308776386423
C         1.40872567976509    0.69163535264128    0.05391964836053
C         2.60989554048977    1.52612641823823    0.03286240401390
C         2.85752309525140    2.45484043762789    1.04145560307962
C         3.99305776856728    3.24249845367687    1.01333540720639
C         4.91771736536643    3.12912410218267   -0.01711329219369
C         6.14816186091453    3.98357300075519   -0.06079590391044
C         4.67165672233205    2.19869754636316   -1.02199940791497
C         3.53828936818674    1.41079946056938   -1.00127440115476
H         1.09638312188680    0.39457406058360    2.20766005936588
H        -1.05550491206460   -0.96684510286928   -1.51264433172021
H         1.02229991910219    0.50202118048718   -2.11295879199941
H         2.14437881408508    2.57167971708604    1.84428262778558
H         4.16092745053941    3.96023931324086    1.80407128816840
H         6.20603789014096    4.62741120053474    0.81304263193031
H         6.14222040425046    4.60795276771910   -0.95370538929490
H         7.04128528113983    3.36116270907546   -0.09704557647609
H         5.38106763785356    2.09192328746861   -1.83065624801002
H         3.37777373052009    0.68559826229676   -1.78542732892917
