111
 energy: -163.137238496781 gnorm: 0.000631808683 xtb: 6.4.1 (1a32961)
N        -0.96510000000000   -2.11529999999999   -0.24090000000000
C        -2.24699999999999   -1.69840000000001   -0.36220000000001
C        -3.14040000000000   -2.36820000000001   -1.21199999999998
C        -2.70220000000000   -3.47560000000000   -1.93049999999999
C        -1.37779999999998   -3.89879999999999   -1.78760000000002
C        -0.54290000000000   -3.18670000000000   -0.93510000000000
H         0.49810000000000   -3.45630000000000   -0.78940000000000
H        -0.99570000000001   -4.76029999999999   -2.32770000000000
H        -4.16500000000000   -2.02890000000000   -1.31830000000000
C        -2.62130000000001   -0.50950000000000    0.44100000000000
N        -1.62600000000000    0.07330000000000    1.16020000000000
C        -1.89680000000000    1.15240000000000    1.91690000000000
C        -3.17229999999999    1.70330000000000    1.99650000000000
C        -4.20510000000000    1.11740000000000    1.26270000000000
C        -3.92609999999999    0.00250000000000    0.47819999999999
H        -4.71960000000000   -0.46420000000000   -0.09520000000000
H        -3.34630000000000    2.57510000000000    2.62070000000000
H        -1.04450000000000    1.57420000000000    2.43690000000000
Ir        0.42150000000000   -0.81650000000000    0.91330000000000
H         0.87260000000000   -2.23030000000000    1.54050000000000
B         0.50670000000000    0.41560000000001   -0.81540000000000
O         0.19500000000000   -0.04699999999999   -2.09150000000000
C         0.00650000000000    1.10039999999999   -2.95430000000000
C         0.49020000000001    0.74740000000002   -4.35780000000000
H         1.51610000000001    0.37380000000000   -4.33700000000000
H         0.44730000000000    1.62239999999999   -5.01670000000000
H        -0.14740000000000   -0.03390000000000   -4.78430000000000
C        -1.50120000000001    1.39560000000001   -2.96670000000001
H        -1.75370000000000    2.21460000000001   -3.64850000000000
H        -2.03200000000000    0.49449999999999   -3.28930000000000
H        -1.85170000000000    1.65210000000000   -1.96220000000000
C         0.84230000000000    2.20670000000000   -2.22040000000000
O         0.75200000000000    1.78260000000000   -0.83689999999999
C         2.32930000000000    2.18620000000001   -2.59899999999998
H         2.74130000000000    1.18500000000001   -2.45750000000000
H         2.48870000000000    2.51300000000000   -3.63180000000000
H         2.87200000000000    2.86270000000000   -1.93200000000000
C         0.28439999999999    3.62290000000000   -2.33660000000000
H        -0.72650000000000    3.69040000000000   -1.92910000000000
H         0.92130000000000    4.31480000000000   -1.77610000000000
H         0.26430000000000    3.94810000000000   -3.38320000000000
B         1.56300000000000    0.60960000000000    1.84840000000000
O         2.92780000000000    0.55230000000000    2.15020000000000
C         3.36330000000001    1.88660000000000    2.50260000000000
C         4.53140000000000    1.78590000000000    3.47740000000001
H         4.27910000000000    1.16090000000000    4.33690000000000
H         5.39390000000000    1.33790000000000    2.97340000000000
H         4.82390000000000    2.77869999999998    3.83820000000000
C         3.79700000000000    2.56850000000001    1.19669999999999
H         4.20020000000000    3.57090000000000    1.37680000000000
H         4.56740000000000    1.95560000000000    0.72110000000000
H         2.95240000000000    2.63260000000000    0.50540000000001
C         2.05040000000000    2.50089999999999    3.09320000000002
O         1.03750000000000    1.81619999999999    2.31910000000000
C         1.89099999999999    4.00450000000001    2.88650000000002
H         1.87290000000000    4.25440000000000    1.82410000000001
H         0.94940000000000    4.34260000000000    3.33170000000000
H         2.71080000000000    4.55150000000000    3.36630000000000
C         1.82470000000000    2.13200000000001    4.56520000000001
H         1.92610000000000    1.05330000000000    4.71320000000000
H         2.52610000000000    2.65280000000000    5.22540000000000
H         0.80630000000000    2.41580000000000    4.84900000000000
B         2.27820000000000   -1.33090000000000    0.17410000000000
O         2.89460000000000   -2.57740000000000    0.38450000000000
C         4.26930000000000   -2.48200000000000   -0.07210000000000
C         5.10900000000000   -2.05379999999999    1.14010000000000
H         4.76350000000000   -1.08740000000000    1.51750000000000
H         4.98050000000000   -2.79470000000000    1.93590000000000
H         6.17420000000000   -1.99290000000000    0.89300000000000
C         4.71950000000000   -3.84660000000000   -0.58470000000000
H         4.75280000000000   -4.56130000000000    0.24420000000000
H         5.72330000000000   -3.78370000000000   -1.02010000000000
H         4.03500000000000   -4.23600000000000   -1.34170000000000
C         4.16440000000000   -1.36220000000000   -1.16300000000000
O         3.08520000000000   -0.55030000000000   -0.65400000000000
C         5.40720000000000   -0.48870000000000   -1.31550000000000
H         6.27320000000000   -1.09010000000000   -1.61530000000000
H         5.23300000000000    0.26930000000000   -2.08590000000000
H         5.64270000000000    0.02650000000000   -0.38240000000000
C         3.71800000000000   -1.89829999999999   -2.53110000000000
H         2.82530000000000   -2.52160000000000   -2.42740000000000
H         3.46090000000000   -1.05249999999999   -3.17550000000000
H         4.50570000000000   -2.48290000000000   -3.01790000000000
H        -3.38500000000000   -4.00130000000000   -2.59310000000000
H        -5.21400000000000    1.52080000000000    1.29960000000000
C         0.23590000000000   -1.68140000000000    2.96030000000000
C        -0.99490609788062   -2.14365260944726    3.42300776350626
C         1.32849926795144   -1.64562236220243    3.84693060847065
C        -1.10318312420409   -2.52207294571563    4.76238648005798
H        -1.85395352115405   -2.24882050812784    2.77528091556418
C         1.24333667559261   -2.00680062644654    5.18186200138761
H         2.29274316027690   -1.34848068566078    3.45453773313414
C         0.00719237333136   -2.45683841112313    5.61167159653931
N        -2.14635897403149   -3.07514493125989    5.47143610243904
H         2.09618605018092   -1.98828888020751    5.84311654027700
O        -0.35320592028423   -2.96924158343172    6.81860452120149
C        -1.66108445762414   -3.33190095192010    6.65447221835023
C        -2.32658749877264   -4.00111732358119    7.75524582679667
C        -3.69824926701837   -4.26034899351915    7.71511929275010
C        -1.58127707275172   -4.42979562996647    8.85624663787031
C        -4.30327179996341   -4.93815289669723    8.76061430455162
H        -4.26731507741672   -3.92315962505618    6.85830447135428
C        -2.19733093206660   -5.11290470563774    9.89047394871213
H        -0.51715933444800   -4.23359050676802    8.88739271553617
C        -3.56385772657607   -5.37859792831108    9.85809954174299
H        -5.36760022322437   -5.13436379030903    8.72460020948002
H        -1.60505731560258   -5.44917837897750   10.73228294976222
C        -4.22545332329911   -6.14207354627571   10.96382475516410
H        -5.15919352824907   -5.66217239908882   11.25789361116166
H        -3.57242882789443   -6.21391999360669   11.83332233897715
H        -4.46083585831701   -7.15328742303374   10.62560423814043
