118
 energy: -179.758042534472 gnorm: 0.012715359001 xtb: 6.4.1 (1a32961)
N        -0.96510000000003   -2.11530000000004   -0.24089999999994
C        -2.24699999999941   -1.69840000000026   -0.36220000000022
C        -3.14039999999979   -2.36820000000016   -1.21199999999990
C        -2.70219999999954   -3.47560000000011   -1.93050000000010
C        -1.37780000000107   -3.89879999999985   -1.78760000000047
C        -0.54290000000029   -3.18669999999997   -0.93509999999989
H         0.49809999999993   -3.45629999999998   -0.78939999999996
H        -0.99570000000001   -4.76029999999991   -2.32769999999997
H        -4.16499999999997   -2.02890000000006   -1.31829999999997
C        -2.62130000000011   -0.50949999999982    0.44100000000015
N        -1.62599999999992    0.07329999999967    1.16019999999980
C        -1.89679999999937    1.15240000000016    1.91690000000022
C        -3.17229999999978    1.70330000000015    1.99649999999959
C        -4.20509999999994    1.11740000000036    1.26269999999978
C        -3.92610000000011    0.00249999999975    0.47820000000036
H        -4.71960000000021   -0.46419999999993   -0.09519999999983
H        -3.34630000000005    2.57510000000009    2.62069999999987
H        -1.04450000000008    1.57419999999998    2.43690000000010
Ir        0.42150000000000   -0.81650000000001    0.91329999999999
H         0.87260000000000   -2.23029999999999    1.54049999999999
B         0.50670000000003    0.41559999999999   -0.81540000000004
O         0.19499999999998   -0.04699999999999   -2.09149999999985
C         0.00650000000027    1.10040000000011   -2.95429999999990
C         0.49020000000061    0.74739999999997   -4.35780000000014
H         1.51609999999981    0.37379999999989   -4.33700000000002
H         0.44730000000004    1.62239999999999   -5.01670000000001
H        -0.14740000000012   -0.03389999999986   -4.78430000000005
C        -1.50119999999928    1.39560000000003   -2.96670000000022
H        -1.75370000000002    2.21460000000005   -3.64849999999999
H        -2.03200000000009    0.49450000000007   -3.28930000000000
H        -1.85170000000002    1.65210000000004   -1.96220000000032
C         0.84230000000001    2.20669999999989   -2.22040000000000
O         0.75199999999999    1.78259999999999   -0.83689999999999
C         2.32930000000025    2.18620000000002   -2.59900000000014
H         2.74129999999996    1.18500000000007   -2.45749999999997
H         2.48870000000005    2.51300000000004   -3.63179999999981
H         2.87199999999988    2.86269999999999   -1.93199999999995
C         0.28439999999976    3.62290000000004   -2.33660000000004
H        -0.72649999999990    3.69040000000000   -1.92910000000003
H         0.92130000000010    4.31480000000014   -1.77610000000005
H         0.26429999999997    3.94810000000004   -3.38320000000001
B         1.56300000000006    0.60960000000002    1.84840000000002
O         2.92780000000006    0.55229999999999    2.15019999999987
C         3.36329999999995    1.88659999999990    2.50259999999978
C         4.53139999999917    1.78589999999999    3.47740000000033
H         4.27909999999999    1.16090000000007    4.33689999999979
H         5.39389999999991    1.33789999999992    2.97340000000008
H         4.82389999999996    2.77870000000008    3.83819999999997
C         3.79700000000011    2.56850000000004    1.19669999999972
H         4.20019999999999    3.57090000000003    1.37679999999992
H         4.56740000000004    1.95559999999995    0.72110000000002
H         2.95240000000005    2.63259999999997    0.50540000000002
C         2.05039999999959    2.50090000000006    3.09320000000035
O         1.03750000000005    1.81620000000016    2.31910000000015
C         1.89100000000057    4.00449999999986    2.88649999999998
H         1.87290000000002    4.25439999999996    1.82409999999991
H         0.94939999999979    4.34259999999996    3.33169999999990
H         2.71080000000024    4.55149999999989    3.36630000000010
C         1.82470000000026    2.13199999999997    4.56519999999958
H         1.92609999999995    1.05330000000015    4.71320000000006
H         2.52609999999997    2.65279999999988    5.22539999999989
H         0.80630000000016    2.41579999999999    4.84899999999984
B         2.27819999999998   -1.33089999999998    0.17410000000000
O         2.89460000000013   -2.57739999999987    0.38449999999996
C         4.26930000000018   -2.48200000000004   -0.07210000000007
C         5.10900000000005   -2.05379999999999    1.14009999999973
H         4.76350000000000   -1.08740000000011    1.51749999999999
H         4.98050000000002   -2.79470000000019    1.93589999999989
H         6.17419999999997   -1.99290000000001    0.89300000000001
C         4.71949999999992   -3.84659999999997   -0.58469999999953
H         4.75280000000003   -4.56130000000019    0.24420000000036
H         5.72329999999995   -3.78369999999998   -1.02009999999972
H         4.03499999999995   -4.23600000000002   -1.34169999999986
C         4.16440000000014   -1.36219999999987   -1.16300000000102
O         3.08520000000010   -0.55029999999988   -0.65399999999977
C         5.40719999999989   -0.48869999999974   -1.31550000000028
H         6.27319999999997   -1.09009999999999   -1.61529999999997
H         5.23299999999997    0.26929999999964   -2.08590000000013
H         5.64269999999995    0.02649999999992   -0.38239999999950
C         3.71799999999924   -1.89830000000001   -2.53110000000027
H         2.82530000000015   -2.52159999999999   -2.42739999999997
H         3.46090000000013   -1.05249999999977   -3.17549999999991
H         4.50570000000027   -2.48289999999996   -3.01789999999979
H        -3.38500000000006   -4.00129999999999   -2.59310000000016
H        -5.21400000000000    1.52080000000008    1.29960000000010
C         0.23589999999986   -1.68139999999996    2.96029999999992
C        -1.15188579310047   -2.12831920771786    3.07133558338250
C         1.05500946615337   -2.08358140284925    4.01998689321349
B        -2.65082842330233   -2.05439681346824    2.43241580203066
C        -1.57095953431135   -2.88824589896136    4.17525044468025
C         0.59166577457132   -2.83663483085837    5.10311995793948
H         2.10598292457301   -1.83244568057928    3.98889456706841
C        -3.68334486198625   -1.16640257105196    3.12112122150123
N        -3.33372750771020   -3.09634501077712    1.65424056117591
C        -0.72476507997977   -3.27662900760471    5.18934397613048
H        -2.59580264780772   -3.23212122391239    4.23229396804850
C         1.41619810416178   -3.37448736295485    6.22796195571202
C        -4.98599069334504   -1.13181997201850    2.72465215524042
H        -3.42008941329023   -0.53866921100382    3.96208172734078
C        -2.70018247032779   -4.37326759614806    1.33774283895430
C        -4.60509131123731   -2.92545589802585    1.12742918939899
H        -1.07236522377585   -3.90700425573535    5.99490559258815
F         0.87408452365170   -3.07619748923023    7.44594828889912
F         1.45923836975467   -4.74053711017257    6.20991063622381
F         2.70620535396204   -2.96811039934147    6.28997779768910
C        -5.42992067786712   -1.86626279683360    1.59119208603063
H        -5.71270052719195   -0.48400887158312    3.20045751509084
H        -3.36787397559835   -5.18870745071079    1.63225691815565
H        -1.75955262377291   -4.44915584051954    1.89247504986163
H        -2.48609904663150   -4.47320053949833    0.26737750967169
C        -5.11528583320817   -3.69509214590872    0.05532354114441
C        -6.57268569156954   -1.49195907610114    0.86217786197529
C        -6.20467245389191   -3.26367310019980   -0.68531029977047
H        -4.59906226948997   -4.57275300320865   -0.29675676256930
C        -6.91067635838730   -2.12254820919031   -0.31964496268509
H        -7.13367900780210   -0.62182548649459    1.17705089523112
H        -6.47466958366389   -3.78690176118115   -1.59331572495470
H        -7.69978860896867   -1.73827682932934   -0.95227183798902
