108
 energy: -154.743124967127 gnorm: 0.000630779676 xtb: 6.4.0 (f63f532)
N        -0.96510000000000   -2.11530000000002   -0.24090000000000
C        -2.24700000000002   -1.69840000000003   -0.36219999999990
C        -3.14039999999999   -2.36820000000000   -1.21199999999997
C        -2.70220000000003   -3.47559999999998   -1.93049999999999
C        -1.37780000000007   -3.89879999999997   -1.78760000000000
C        -0.54290000000002   -3.18669999999998   -0.93510000000001
H         0.49809999999999   -3.45629999999999   -0.78940000000000
H        -0.99570000000000   -4.76029999999994   -2.32769999999999
H        -4.16500000000001   -2.02890000000001   -1.31830000000000
C        -2.62129999999998   -0.50950000000002    0.44100000000001
N        -1.62600000000000    0.07330000000001    1.16020000000000
C        -1.89680000000001    1.15239999999997    1.91690000000002
C        -3.17230000000002    1.70329999999995    1.99650000000002
C        -4.20510000000003    1.11739999999995    1.26269999999998
C        -3.92609999999998    0.00249999999994    0.47820000000003
H        -4.71960000000000   -0.46420000000000   -0.09520000000003
H        -3.34630000000000    2.57510000000003    2.62070000000000
H        -1.04450000000000    1.57419999999999    2.43690000000003
Ir        0.42150000000000   -0.81650000000000    0.91330000000001
H         0.87260000000000   -2.23030000000000    1.54050000000000
B         0.50670000000000    0.41560000000003   -0.81540000000000
O         0.19499999999999   -0.04700000000002   -2.09149999999999
C         0.00649999999999    1.10040000000000   -2.95429999999998
C         0.49019999999993    0.74739999999999   -4.35780000000002
H         1.51610000000004    0.37380000000002   -4.33700000000000
H         0.44729999999998    1.62240000000001   -5.01670000000002
H        -0.14740000000003   -0.03390000000001   -4.78430000000002
C        -1.50120000000005    1.39560000000002   -2.96669999999998
H        -1.75369999999999    2.21459999999994   -3.64849999999993
H        -2.03199999999999    0.49450000000004   -3.28929999999998
H        -1.85170000000002    1.65210000000001   -1.96220000000002
C         0.84229999999999    2.20670000000003   -2.22039999999991
O         0.75200000000000    1.78259999999994   -0.83690000000002
C         2.32929999999994    2.18620000000003   -2.59900000000006
H         2.74130000000000    1.18500000000003   -2.45750000000000
H         2.48869999999998    2.51300000000001   -3.63180000000001
H         2.87199999999999    2.86270000000001   -1.93200000000001
C         0.28440000000006    3.62290000000000   -2.33659999999994
H        -0.72650000000006    3.69040000000001   -1.92910000000000
H         0.92129999999998    4.31480000000002   -1.77609999999999
H         0.26430000000000    3.94810000000000   -3.38319999999995
B         1.56300000000001    0.60960000000002    1.84840000000001
O         2.92780000000000    0.55230000000001    2.15019999999999
C         3.36330000000006    1.88659999999998    2.50260000000003
C         4.53139999999997    1.78590000000006    3.47739999999998
H         4.27910000000001    1.16090000000001    4.33690000000002
H         5.39390000000002    1.33790000000000    2.97339999999998
H         4.82390000000000    2.77870000000002    3.83819999999999
C         3.79700000000003    2.56849999999999    1.19669999999999
H         4.20020000000000    3.57090000000000    1.37680000000000
H         4.56740000000000    1.95560000000000    0.72110000000000
H         2.95240000000000    2.63260000000000    0.50540000000000
C         2.05039999999999    2.50090000000003    3.09319999999997
O         1.03749999999997    1.81620000000000    2.31909999999999
C         1.89100000000001    4.00450000000001    2.88649999999999
H         1.87290000000000    4.25440000000000    1.82409999999999
H         0.94940000000000    4.34260000000001    3.33169999999999
H         2.71080000000001    4.55149999999999    3.36629999999999
C         1.82469999999996    2.13199999999990    4.56519999999999
H         1.92610000000001    1.05329999999995    4.71320000000001
H         2.52610000000002    2.65280000000000    5.22540000000001
H         0.80630000000000    2.41580000000000    4.84900000000000
B         2.27819999999997   -1.33089999999999    0.17410000000000
O         2.89459999999998   -2.57740000000001    0.38450000000002
C         4.26929999999993   -2.48199999999998   -0.07210000000003
C         5.10899999999999   -2.05379999999998    1.14010000000004
H         4.76350000000001   -1.08740000000001    1.51750000000000
H         4.98050000000000   -2.79470000000002    1.93589999999998
H         6.17420000000001   -1.99290000000000    0.89299999999999
C         4.71949999999992   -3.84659999999999   -0.58469999999988
H         4.75280000000000   -4.56130000000000    0.24419999999999
H         5.72330000000002   -3.78370000000001   -1.02010000000000
H         4.03500000000000   -4.23600000000000   -1.34169999999999
C         4.16440000000004   -1.36219999999999   -1.16300000000003
O         3.08520000000000   -0.55030000000000   -0.65399999999999
C         5.40719999999995   -0.48869999999998   -1.31550000000011
H         6.27320000000007   -1.09010000000000   -1.61530000000001
H         5.23300000000000    0.26930000000000   -2.08590000000001
H         5.64270000000000    0.02650000000000   -0.38239999999999
C         3.71800000000011   -1.89830000000006   -2.53110000000005
H         2.82529999999997   -2.52159999999999   -2.42740000000001
H         3.46090000000000   -1.05249999999997   -3.17550000000001
H         4.50570000000000   -2.48289999999999   -3.01789999999997
H        -3.38499999999996   -4.00130000000005   -2.59309999999998
H        -5.21400000000000    1.52080000000001    1.29960000000002
C         0.23590000000002   -1.68139999999999    2.96029999999998
C        -1.01916257435273   -2.03245342028154    3.45037227052241
C         1.31188585238079   -1.72430157207284    3.84860067788382
C        -1.19463948915071   -2.33803828476435    4.79364715920448
H        -1.87951587828429   -2.07864600382511    2.79318351997695
C         1.16302296981897   -2.07871598424809    5.18655400166602
H         2.30620672623381   -1.50850796904284    3.47589930919982
C        -0.11297582484567   -2.37319459656575    5.66207385393021
H        -2.18349878247929   -2.58573986810439    5.16158997633197
C         2.38278790415402   -2.18354852716046    6.06893328186142
H        -0.25792523252795   -2.65231983978917    6.69879918321430
C         3.51306906471861   -2.91307371904831    5.38919363969347
H         2.74495777548510   -1.18797432967207    6.34416675880097
H         2.12585202001014   -2.71358059054079    6.99232170588563
N         4.72621117917493   -2.36184509677677    5.48736561047608
C         3.29927931434394   -4.10875363865473    4.70729855281489
C         5.75246015177480   -2.97989858000018    4.90846057508047
C         4.37473125624441   -4.74200593386922    4.10561870605363
H         2.30257849146984   -4.52322720753737    4.64449061354957
C         5.63418964001551   -4.16665425138528    4.20638773671087
H         6.70961671981479   -2.48370845792703    5.01984949969594
H         4.23227889134305   -5.66861265775112    3.56404940531371
H         6.49924491646667   -4.62540536824006    3.74916109518467
