108
 energy: -154.663157061321 gnorm: 0.020301409611 xtb: 6.4.0 (f63f532)
N        -0.96509999999992   -2.11529999999992   -0.24089999999997
C        -2.24699999999993   -1.69840000000001   -0.36220000000016
C        -3.14039999999991   -2.36819999999995   -1.21200000000007
C        -2.70219999999988   -3.47559999999983   -1.93049999999999
C        -1.37779999999972   -3.89880000000002   -1.78760000000002
C        -0.54289999999998   -3.18669999999993   -0.93510000000016
H         0.49810000000007   -3.45630000000000   -0.78940000000002
H        -0.99570000000001   -4.76030000000000   -2.32770000000001
H        -4.16499999999996   -2.02890000000004   -1.31829999999999
C        -2.62129999999996   -0.50949999999987    0.44100000000006
N        -1.62599999999988    0.07330000000014    1.16020000000014
C        -1.89680000000010    1.15240000000010    1.91689999999987
C        -3.17230000000034    1.70330000000022    1.99650000000009
C        -4.20509999999994    1.11740000000032    1.26270000000004
C        -3.92609999999999    0.00249999999993    0.47820000000016
H        -4.71959999999990   -0.46420000000003   -0.09520000000010
H        -3.34629999999999    2.57510000000013    2.62070000000016
H        -1.04450000000002    1.57420000000012    2.43689999999990
Ir        0.42150000000000   -0.81650000000000    0.91330000000002
H         0.87260000000000   -2.23030000000000    1.54049999999999
B         0.50669999999998    0.41559999999996   -0.81540000000027
O         0.19500000000003   -0.04700000000016   -2.09150000000009
C         0.00650000000010    1.10039999999999   -2.95430000000006
C         0.49019999999973    0.74740000000034   -4.35779999999999
H         1.51609999999989    0.37380000000004   -4.33699999999999
H         0.44729999999998    1.62240000000011   -5.01669999999982
H        -0.14739999999976   -0.03389999999989   -4.78429999999995
C        -1.50120000000013    1.39559999999995   -2.96669999999983
H        -1.75370000000002    2.21460000000007   -3.64849999999996
H        -2.03199999999995    0.49450000000008   -3.28929999999999
H        -1.85170000000005    1.65209999999992   -1.96219999999970
C         0.84230000000008    2.20669999999998   -2.22039999999991
O         0.75199999999998    1.78259999999998   -0.83689999999964
C         2.32929999999996    2.18620000000016   -2.59899999999996
H         2.74129999999997    1.18500000000017   -2.45750000000003
H         2.48869999999999    2.51300000000003   -3.63179999999997
H         2.87199999999984    2.86270000000000   -1.93199999999996
C         0.28440000000006    3.62290000000029   -2.33659999999970
H        -0.72650000000023    3.69040000000001   -1.92910000000017
H         0.92130000000000    4.31479999999999   -1.77610000000012
H         0.26430000000001    3.94810000000007   -3.38319999999988
B         1.56299999999999    0.60960000000005    1.84839999999998
O         2.92779999999994    0.55230000000008    2.15019999999998
C         3.36329999999995    1.88659999999995    2.50260000000000
C         4.53139999999992    1.78589999999993    3.47739999999995
H         4.27910000000001    1.16090000000000    4.33689999999995
H         5.39390000000011    1.33789999999998    2.97340000000003
H         4.82389999999999    2.77869999999991    3.83819999999999
C         3.79700000000001    2.56849999999999    1.19670000000007
H         4.20019999999998    3.57090000000002    1.37679999999999
H         4.56740000000002    1.95559999999997    0.72110000000001
H         2.95239999999998    2.63260000000000    0.50540000000006
C         2.05040000000020    2.50090000000003    3.09320000000041
O         1.03750000000004    1.81619999999968    2.31910000000001
C         1.89100000000009    4.00449999999988    2.88650000000014
H         1.87290000000001    4.25440000000002    1.82410000000021
H         0.94940000000003    4.34259999999999    3.33170000000001
H         2.71080000000001    4.55149999999993    3.36629999999999
C         1.82469999999996    2.13200000000041    4.56519999999986
H         1.92609999999996    1.05330000000003    4.71319999999999
H         2.52610000000015    2.65279999999996    5.22539999999990
H         0.80630000000001    2.41579999999998    4.84899999999996
B         2.27819999999998   -1.33090000000000    0.17410000000005
O         2.89459999999990   -2.57739999999999    0.38450000000001
C         4.26930000000008   -2.48200000000001   -0.07210000000014
C         5.10899999999997   -2.05380000000007    1.14009999999960
H         4.76350000000001   -1.08740000000012    1.51750000000001
H         4.98050000000001   -2.79470000000014    1.93589999999981
H         6.17419999999995   -1.99290000000002    0.89299999999997
C         4.71949999999998   -3.84660000000015   -0.58470000000038
H         4.75280000000001   -4.56129999999986    0.24419999999987
H         5.72330000000010   -3.78370000000000   -1.02010000000007
H         4.03500000000007   -4.23599999999998   -1.34170000000005
C         4.16439999999998   -1.36220000000023   -1.16299999999989
O         3.08519999999997   -0.55029999999993   -0.65399999999992
C         5.40720000000017   -0.48870000000003   -1.31550000000008
H         6.27319999999989   -1.09010000000007   -1.61529999999999
H         5.23300000000000    0.26929999999997   -2.08590000000008
H         5.64269999999996    0.02650000000002   -0.38239999999998
C         3.71800000000008   -1.89829999999993   -2.53109999999980
H         2.82529999999983   -2.52159999999996   -2.42740000000001
H         3.46090000000000   -1.05249999999990   -3.17550000000013
H         4.50569999999995   -2.48289999999997   -3.01790000000004
H        -3.38499999999988   -4.00129999999989   -2.59309999999998
H        -5.21400000000005    1.52079999999995    1.29959999999989
C         0.23589999999999   -1.68140000000000    2.96030000000017
C        -0.92426625206753   -2.22730421072634    3.51997128912846
C         1.41572287438897   -2.27208250925511    3.59186739244435
C        -0.93790488659245   -3.17312636058155    4.54727321313032
H        -1.89174720625222   -1.94093865774861    3.12654714430108
N         1.39697676135989   -3.18312941328720    4.57228860167662
C         2.91519035594321   -2.10966200533765    3.33346524862731
C         0.25387673820541   -3.66729466488599    5.03234877820812
H        -1.86284196513365   -3.58482200902698    4.92434304951541
C         3.84283234491001   -3.32747007031223    3.33436001445462
H         3.31048696048461   -1.41841271834705    4.08519846323740
H         3.05942603851340   -1.62329881945127    2.36974186481410
H         0.36005975687757   -4.47558942351586    5.74853126247341
C         3.58838751156843   -4.46513625424805    2.55751618717473
C         5.17685067076248   -3.20087892092974    3.78208810438197
C         4.61191459515297   -5.29895882239874    2.10969102067722
H         2.59024408202946   -4.63844872069027    2.17849035693320
C         6.21499001458355   -3.98501115881825    3.27409496095667
H         5.47355481760111   -2.34449571735936    4.37514536861613
C         5.94478949043858   -5.01090421608266    2.38067191283352
H         4.37877069922100   -6.13359519207977    1.45653036020931
H         7.24985693686856   -3.72703708451857    3.47199649814603
H         6.74367024252832   -5.52575488381195    1.85629513883673
