12
 energy: -17.480426647113 gnorm: 0.000224256988 xtb: 6.4.0 (f63f532)
N         0.74207315058169   -0.01624058562595   -0.00532925912389
C         2.17883931112360    0.01500376078482   -0.01704584474536
C        -0.10416144360659    1.03582905685229    0.00403482169365
N        -1.35814219455548    0.66556584787300    0.00964266815357
C        -1.33314188254703   -0.69362160053928    0.00428675460177
C        -0.04097224531373   -1.13517180714437   -0.00497317024322
H         2.51313441109710    1.05029870492220    0.00572092522950
H         2.56016992066020   -0.46520352504315   -0.92023260224967
H         2.57459597281984   -0.50930579873378    0.85462462587336
H         0.22688800537884    2.05561534239466    0.00674378862319
H        -2.24284420517166   -1.26091937617736    0.00759830323925
H         0.37453119953321   -2.12168001956307   -0.01159101105215
