106
 energy: -152.400184039995 gnorm: 0.006190931677 xtb: 6.4.1 (1a32961)
N        -0.96510000000000   -2.11530000000001   -0.24090000000000
C        -2.24700000000000   -1.69839999999998   -0.36220000000002
C        -3.14040000000000   -2.36820000000000   -1.21200000000002
C        -2.70219999999999   -3.47559999999999   -1.93050000000000
C        -1.37779999999993   -3.89880000000001   -1.78760000000004
C        -0.54289999999997   -3.18670000000000   -0.93510000000002
H         0.49810000000000   -3.45630000000000   -0.78940000000000
H        -0.99570000000000   -4.76030000000000   -2.32770000000001
H        -4.16500000000000   -2.02890000000000   -1.31830000000000
C        -2.62129999999995   -0.50950000000006    0.44100000000006
N        -1.62599999999974    0.07329999999970    1.16019999999869
C        -1.89680000000005    1.15240000000001    1.91689999999986
C        -3.17230000000001    1.70330000000002    1.99650000000001
C        -4.20510000000001    1.11740000000004    1.26270000000000
C        -3.92609999999988    0.00250000000006    0.47820000000002
H        -4.71959999999999   -0.46419999999999   -0.09519999999999
H        -3.34629999999998    2.57510000000002    2.62070000000000
H        -1.04449999999999    1.57420000000002    2.43690000000001
Ir        0.42150000000000   -0.81650000000000    0.91330000000000
H         0.87259999999999   -2.23030000000000    1.54050000000000
B         0.50670000000000    0.41560000000000   -0.81540000000000
O         0.19499999999999   -0.04700000000000   -2.09150000000000
C         0.00650000000000    1.10040000000000   -2.95430000000001
C         0.49020000000001    0.74740000000000   -4.35780000000000
H         1.51610000000002    0.37380000000000   -4.33700000000000
H         0.44729999999999    1.62240000000000   -5.01670000000000
H        -0.14740000000001   -0.03390000000000   -4.78430000000000
C        -1.50119999999997    1.39560000000001   -2.96669999999999
H        -1.75370000000001    2.21460000000000   -3.64850000000000
H        -2.03199999999999    0.49450000000001   -3.28929999999999
H        -1.85170000000000    1.65210000000001   -1.96220000000000
C         0.84230000000003    2.20670000000001   -2.22040000000000
O         0.75200000000001    1.78260000000000   -0.83690000000000
C         2.32930000000002    2.18620000000000   -2.59899999999999
H         2.74130000000000    1.18499999999999   -2.45750000000001
H         2.48870000000000    2.51299999999999   -3.63180000000000
H         2.87200000000001    2.86269999999999   -1.93200000000001
C         0.28440000000000    3.62290000000000   -2.33659999999999
H        -0.72649999999997    3.69040000000001   -1.92910000000000
H         0.92130000000001    4.31480000000000   -1.77610000000000
H         0.26430000000001    3.94810000000000   -3.38320000000000
B         1.56300000000000    0.60960000000000    1.84840000000000
O         2.92779999999998    0.55229999999999    2.15019999999999
C         3.36330000000001    1.88660000000000    2.50259999999999
C         4.53140000000002    1.78590000000000    3.47739999999999
H         4.27910000000001    1.16089999999998    4.33689999999999
H         5.39390000000002    1.33789999999998    2.97339999999999
H         4.82390000000002    2.77869999999998    3.83820000000000
C         3.79700000000000    2.56849999999998    1.19670000000000
H         4.20020000000001    3.57089999999998    1.37679999999999
H         4.56740000000001    1.95559999999998    0.72109999999998
H         2.95240000000002    2.63259999999999    0.50539999999999
C         2.05040000000002    2.50089999999999    3.09320000000000
O         1.03750000000001    1.81620000000000    2.31910000000000
C         1.89100000000001    4.00450000000000    2.88649999999999
H         1.87290000000002    4.25440000000000    1.82410000000000
H         0.94940000000003    4.34260000000000    3.33170000000000
H         2.71080000000003    4.55149999999999    3.36629999999999
C         1.82470000000002    2.13200000000000    4.56520000000000
H         1.92610000000003    1.05330000000001    4.71320000000000
H         2.52610000000002    2.65280000000000    5.22539999999999
H         0.80630000000003    2.41580000000000    4.84900000000000
B         2.27819999999999   -1.33090000000001    0.17410000000000
O         2.89460000000000   -2.57740000000001    0.38449999999999
C         4.26930000000001   -2.48200000000002   -0.07209999999999
C         5.10899999999999   -2.05380000000003    1.14010000000003
H         4.76350000000000   -1.08740000000002    1.51749999999999
H         4.98049999999999   -2.79470000000000    1.93589999999998
H         6.17420000000000   -1.99290000000002    0.89299999999998
C         4.71949999999999   -3.84660000000001   -0.58470000000001
H         4.75279999999998   -4.56130000000002    0.24419999999999
H         5.72329999999998   -3.78370000000002   -1.02010000000001
H         4.03499999999997   -4.23600000000002   -1.34170000000002
C         4.16439999999998   -1.36220000000001   -1.16300000000000
O         3.08520000000000   -0.55030000000001   -0.65400000000001
C         5.40720000000000   -0.48870000000003   -1.31550000000002
H         6.27319999999998   -1.09010000000001   -1.61530000000003
H         5.23299999999999    0.26929999999997   -2.08590000000003
H         5.64270000000000    0.02649999999998   -0.38240000000002
C         3.71800000000000   -1.89830000000001   -2.53110000000000
H         2.82529999999998   -2.52160000000001   -2.42740000000001
H         3.46089999999997   -1.05250000000002   -3.17550000000001
H         4.50569999999996   -2.48290000000001   -3.01790000000001
H        -3.38500000000004   -4.00129999999998   -2.59309999999998
H        -5.21399999999999    1.52080000000004    1.29960000000004
C         0.23590000000001   -1.68139999999999    2.96030000000000
C        -1.09754868566013   -1.85563296934121    3.40444581019720
C         1.22416948518639   -1.94217196778747    3.91520272943821
C        -2.36995953854580   -2.08589089224156    2.69147775786898
C        -1.36915165945765   -1.97988878375776    4.77320973468251
C         0.94564442653625   -2.29651367819710    5.23335341346790
H         2.25658853816575   -1.92745761080369    3.58804905415813
C        -2.66075855731648   -3.17323947170311    1.91156154973919
C        -3.57257440064608   -1.38923050182533    3.03561709847798
C        -0.36662643191667   -2.22018429646058    5.68817801530806
H        -2.40165587657488   -2.00292801089362    5.10187461936379
C         1.96766719783817   -2.87974513100954    6.16005606188535
S        -4.33512893022822   -3.32570699500967    1.55612226362119
H        -1.98345474233230   -3.91095599626435    1.52134671528306
C        -4.69127009855540   -1.92240446904250    2.47527739981851
H        -3.58697729063175   -0.49576271589961    3.63897409297400
H        -0.61919227661141   -2.42281057771514    6.72150105186075
H         1.85330481824562   -2.47032338288243    7.16439616996577
H         2.98270654571566   -2.71512363543584    5.80490496479312
H         1.79230082379758   -3.95702875350818    6.22322236357745
H        -5.70369996211502   -1.56370070512066    2.53398141689120
