106
 energy: -152.433511428665 gnorm: 0.000416750210 xtb: 6.4.1 (1a32961)
N        -0.90929312835837   -1.89486306328199   -0.49578519582859
C        -2.10449134610827   -1.31106597447550   -0.71094670124113
C        -2.93479125279392   -1.73615407367099   -1.75510451616389
C        -2.53668577518540   -2.77041905099613   -2.57196086395599
C        -1.30135556666747   -3.36828445432205   -2.33491335580841
C        -0.53416411213222   -2.88945877532066   -1.29481567794298
H         0.43182565394802   -3.32243011981273   -1.07405988296370
H        -0.95131882902014   -4.18493949219241   -2.94522062116026
H        -3.88749729491726   -1.26242825044685   -1.92546570924425
C        -2.46803621509873   -0.23615277451636    0.20026380178649
N        -1.55715194343880    0.08415161556661    1.14492359942123
C        -1.86109727271690    1.03632863486071    2.02506091677826
C        -3.04831886678539    1.73740291921414    2.01163923040954
C        -3.98570554887195    1.43849365088210    1.02548872772351
C        -3.68926408711844    0.44339799867542    0.12035046678603
H        -4.40645841791810    0.19064771006836   -0.64283445334738
H        -3.24214291933468    2.49554199108894    2.75345208734952
H        -1.10170300563582    1.24169606116561    2.76366321608221
Ir        0.42150000000043   -0.81649999999996    0.91329999999979
H         0.87260000000022   -2.23030000000011    1.54049999999994
B         0.51082629858039    0.65241426377899   -0.58241811664422
O        -0.20941330851937    0.48091551405765   -1.75128890035838
C        -0.17078472168224    1.67749518750970   -2.53492674028711
C        -0.03400949262871    1.31871884956274   -4.01251901766092
H         0.80649625007462    0.65133947410824   -4.17096890036572
H         0.09735129883782    2.21988485454010   -4.60596660576460
H        -0.93798837733344    0.81022272580590   -4.33954831510294
C        -1.50646229553591    2.40158782126704   -2.31243430890903
H        -1.57008782018689    3.30402128059629   -2.91322157271790
H        -2.31576929234338    1.73013333494394   -2.59259982065893
H        -1.62555800498524    2.64984712462083   -1.25964859635037
C         1.04541492776660    2.44663120512662   -1.92256949017648
O         1.14495462517146    1.87377297730252   -0.61153074938450
C         2.36177241026609    2.13292209482693   -2.64407262385890
H         2.52253806474107    1.05771404470281   -2.63705379915787
H         2.35757478744696    2.51392405089283   -3.66118241681374
H         3.18041087071659    2.59487871830810   -2.09674205249123
C         0.86800541802037    3.96045546341851   -1.81950335128257
H         0.04915590165098    4.21638029279476   -1.15415627076507
H         1.77937031392194    4.39964594262128   -1.42031805658941
H         0.68074313492027    4.38064699188929   -2.80445485410593
B         1.57894777196507    0.64146848355193    1.86179505238495
O         2.94862162933214    0.68936104971112    1.95422142447991
C         3.37512560666843    1.96241326038514    2.45578209965252
C         4.50710254560748    1.76023869503598    3.46314235100052
H         4.20775428830610    1.08378418844273    4.25624788378785
H         5.36115336639679    1.32360439265086    2.95164722617295
H         4.80403777536367    2.71434612483011    3.89009950442650
C         3.90274732671897    2.75141385029919    1.25111073596651
H         4.21389771863914    3.75306502159868    1.53215067819744
H         4.75745928672268    2.22143279851271    0.83607446673261
H         3.12832554415918    2.78959386762768    0.48990447611464
C         2.05416382110258    2.56215110739485    3.05580304476617
O         1.03152409773621    1.74989694521846    2.46451956283570
C         1.79755410281424    4.02501290549070    2.69593710106558
H         1.68995857108784    4.13659794771811    1.62221158635594
H         0.87279030649472    4.35038495864612    3.16598440252895
H         2.61103069170636    4.65052626513014    3.05314541428757
C         1.94313586898369    2.38640322456042    4.57550432764210
H         2.03531097701529    1.33520620991702    4.83258251963953
H         2.70067630284374    2.96610838697493    5.09371077090079
H         0.96015416886966    2.72487189858637    4.89506218256882
B         2.27819999999986   -1.33089999999778    0.17409999999266
O         3.14612145838072   -2.20901141503506    0.79047801735486
C         4.38597414084191   -2.27763531536183    0.07767416948640
C         5.39123781894646   -1.42130963786717    0.85498242906472
H         4.98354814110821   -0.42167068633037    0.97307880845142
H         5.51346492757497   -1.85075090654431    1.84613072033543
H         6.35704532090209   -1.38874473514826    0.36015343548356
C         4.87310295876353   -3.72669145896012    0.04670844243183
H         5.09021687083761   -4.04397568272789    1.06323030677163
H         5.77818604385333   -3.80590023521184   -0.54898321645104
H         4.11434518369889   -4.38960790799682   -0.35547050742685
C         4.01257820267324   -1.67188200482280   -1.32048562706336
O         2.79676031512765   -0.95700932325204   -1.04715042226477
C         5.04894671793346   -0.71024620796226   -1.89881252166925
H         6.00788581724962   -1.21028024122544   -2.00370584182798
H         4.71945554533098   -0.37656536965670   -2.87965960340856
H         5.15600769419546    0.16136544317487   -1.26233331785870
C         3.68124657832543   -2.74098999238143   -2.37102346828940
H         2.92353800100711   -3.41982700496617   -1.98937878319175
H         3.27730179671926   -2.24962023056801   -3.25297847691858
H         4.56838737950961   -3.30023794498005   -2.65228982172382
H        -3.17073303300223   -3.11110096312190   -3.37629002492607
H        -4.92457220810121    1.96900121258632    0.97350914055793
C         0.23589999999242   -1.68139999998845    2.96029999999730
C        -1.03291056787606   -2.01482312076453    3.44512531657646
C         1.25670577518293   -1.47576307828305    3.88960172271276
C        -2.14492016994701   -2.46755047217732    2.59828554601386
C        -1.27338171527385   -1.97374358615462    4.82095842603224
C         1.03097251851767   -1.47652714019116    5.25794799798715
H         2.25808227500763   -1.31420677661066    3.51942626357719
C        -2.06677847682852   -3.50157436745307    1.71542303950906
C        -3.47270794205549   -1.95886560611290    2.68724456704782
C        -0.26470640012135   -1.69495573587794    5.71767318545875
H        -2.26749392294475   -2.19856178894687    5.18400763983940
C         2.15119057565691   -1.26223450123604    6.23332529631505
S        -3.57963900411665   -3.85932313276953    0.97771755368902
H        -1.20739453121953   -4.08961071905579    1.46382086698145
C        -4.34220398728454   -2.59813277063898    1.87015964839455
H        -3.74482915852563   -1.13422519805703    3.32252686341430
H        -0.47283540256799   -1.67781667374442    6.77819459954926
H         1.96177439733756   -0.38223123182563    6.84730288545648
H         3.09469655832640   -1.13220523088363    5.70984390941318
H         2.23869646361613   -2.11909527570764    6.90034371915736
H        -5.38848063136639   -2.41228392567594    1.73037260760467
