12
 energy: -24.171383016138 gnorm: 0.000199042316 xtb: 6.4.1 (1a32961)
C        -0.77026696278420   -1.90155124427616   -0.00255652476543
C        -1.83055072808037   -1.01017992345594    0.00602563017692
C        -1.54787800731884    0.34303346090645    0.01333071400792
F        -2.57225958707402    1.22941143162316    0.02242837633893
C        -0.25531037618973    0.83492029545373    0.01240734823138
C         0.78361650300341   -0.08223265772467    0.00369770853832
Cl        2.41704663658016    0.49701950110993    0.00237501263229
C         0.53814922652950   -1.44670134243584   -0.00359984891003
H        -0.96496691852296   -2.96193544721783   -0.00881249905124
H        -2.85466250010682   -1.34568624134284    0.00701633429350
H        -0.07510960977325    1.89721041436451    0.01870682675131
H         1.36192232373713   -2.14144824700448   -0.01062907824387
