14
 energy: -23.384579441197 gnorm: 0.000202318789 xtb: 6.4.1 (1a32961)
C        -2.00157216437862    0.00573827624958   -0.02786463987270
N        -3.36795343248681    0.00615598101576   -0.09927530512003
C        -1.28380040832505   -1.19558719198279   -0.02671518460341
C         0.09626584715381   -1.19815924703176   -0.02268747677338
C         0.78186997751414    0.00521909985786   -0.01736410225422
Cl        2.52760662955331    0.00488654674765   -0.00831340808978
C         0.09668933741779    1.20884971006528   -0.01644955134873
C        -1.28337943208662    1.20679414493912   -0.02047740873102
H        -3.84634028682446   -0.84897473594308    0.12483623320643
H        -3.84609667365547    0.86013269920978    0.12968303642725
H        -1.81774495946773   -2.13385453082339   -0.03176334411130
H         0.63880911965121   -2.13050047387893   -0.02123105883396
H         0.63956447948747    2.14097691144810   -0.01001078685441
H        -1.81698803355296    2.14526281012682   -0.02051700304073
