111
 energy: -157.861385152499 gnorm: 0.010540529241 xtb: 6.4.0 (f63f532)
N        -0.96509999999989   -2.11530000000000   -0.24090000000000
C        -2.24700000000005   -1.69840000000000   -0.36220000000000
C        -3.14040000000000   -2.36819999999998   -1.21200000000001
C        -2.70220000000000   -3.47560000000000   -1.93050000000000
C        -1.37780000000000   -3.89880000000000   -1.78760000000000
C        -0.54290000000000   -3.18670000000000   -0.93510000000000
H         0.49810000000000   -3.45630000000000   -0.78940000000000
H        -0.99570000000000   -4.76030000000000   -2.32770000000000
H        -4.16500000000000   -2.02890000000000   -1.31830000000000
C        -2.62130000000000   -0.50950000000000    0.44100000000000
N        -1.62600000000000    0.07330000000000    1.16020000000000
C        -1.89680000000000    1.15240000000000    1.91690000000000
C        -3.17230000000000    1.70330000000000    1.99650000000000
C        -4.20510000000000    1.11740000000000    1.26270000000000
C        -3.92610000000000    0.00250000000000    0.47820000000000
H        -4.71960000000000   -0.46420000000000   -0.09520000000000
H        -3.34630000000000    2.57510000000000    2.62070000000000
H        -1.04450000000000    1.57420000000000    2.43690000000000
Ir        0.42150000000000   -0.81650000000000    0.91330000000000
H         0.87260000000000   -2.23030000000000    1.54050000000000
B         0.50670000000000    0.41560000000000   -0.81540000000000
O         0.19500000000000   -0.04700000000000   -2.09150000000000
C         0.00650000000001    1.10040000000000   -2.95430000000000
C         0.49020000000000    0.74740000000000   -4.35780000000000
H         1.51610000000000    0.37380000000000   -4.33700000000000
H         0.44730000000000    1.62240000000000   -5.01670000000000
H        -0.14740000000000   -0.03390000000000   -4.78430000000000
C        -1.50120000000000    1.39560000000000   -2.96670000000000
H        -1.75370000000000    2.21460000000000   -3.64850000000000
H        -2.03200000000000    0.49450000000000   -3.28930000000000
H        -1.85170000000000    1.65210000000000   -1.96220000000000
C         0.84230000000000    2.20670000000000   -2.22040000000000
O         0.75200000000000    1.78260000000000   -0.83690000000000
C         2.32929999999999    2.18620000000000   -2.59900000000000
H         2.74130000000000    1.18500000000000   -2.45750000000000
H         2.48870000000000    2.51300000000000   -3.63180000000000
H         2.87200000000000    2.86270000000000   -1.93200000000000
C         0.28440000000000    3.62290000000000   -2.33660000000000
H        -0.72649999999999    3.69040000000000   -1.92910000000000
H         0.92130000000001    4.31480000000000   -1.77610000000000
H         0.26430000000000    3.94810000000000   -3.38320000000000
B         1.56300000000000    0.60960000000000    1.84840000000000
O         2.92780000000000    0.55230000000000    2.15020000000000
C         3.36330000000001    1.88660000000000    2.50260000000000
C         4.53140000000000    1.78589999999999    3.47740000000001
H         4.27910000000000    1.16090000000000    4.33690000000000
H         5.39390000000000    1.33790000000000    2.97340000000001
H         4.82390000000000    2.77870000000000    3.83819999999999
C         3.79700000000000    2.56850000000000    1.19670000000000
H         4.20020000000000    3.57090000000000    1.37680000000000
H         4.56740000000000    1.95560000000000    0.72110000000000
H         2.95240000000000    2.63260000000000    0.50540000000000
C         2.05040000000000    2.50090000000001    3.09320000000000
O         1.03750000000000    1.81620000000000    2.31910000000000
C         1.89100000000000    4.00450000000000    2.88649999999999
H         1.87290000000000    4.25440000000000    1.82410000000001
H         0.94940000000000    4.34260000000000    3.33170000000000
H         2.71080000000000    4.55150000000000    3.36630000000001
C         1.82470000000001    2.13200000000001    4.56520000000000
H         1.92610000000000    1.05330000000000    4.71320000000000
H         2.52610000000000    2.65280000000000    5.22540000000000
H         0.80630000000001    2.41580000000000    4.84900000000000
B         2.27820000000000   -1.33090000000000    0.17410000000000
O         2.89460000000000   -2.57740000000000    0.38450000000000
C         4.26930000000000   -2.48200000000000   -0.07210000000000
C         5.10900000000000   -2.05380000000000    1.14010000000000
H         4.76350000000000   -1.08740000000001    1.51750000000000
H         4.98050000000000   -2.79470000000001    1.93590000000000
H         6.17420000000000   -1.99290000000000    0.89300000000000
C         4.71950000000001   -3.84660000000000   -0.58470000000000
H         4.75280000000000   -4.56130000000000    0.24420000000001
H         5.72330000000000   -3.78370000000001   -1.02010000000000
H         4.03500000000000   -4.23600000000000   -1.34170000000000
C         4.16440000000000   -1.36220000000000   -1.16300000000000
O         3.08520000000000   -0.55030000000000   -0.65400000000000
C         5.40720000000000   -0.48870000000000   -1.31549999999999
H         6.27320000000000   -1.09010000000000   -1.61530000000000
H         5.23300000000000    0.26930000000000   -2.08590000000000
H         5.64270000000000    0.02650000000000   -0.38240000000001
C         3.71799999999999   -1.89830000000001   -2.53110000000000
H         2.82530000000000   -2.52160000000000   -2.42740000000000
H         3.46089999999999   -1.05250000000000   -3.17550000000000
H         4.50570000000000   -2.48290000000000   -3.01790000000000
H        -3.38500000000000   -4.00130000000000   -2.59310000000000
H        -5.21400000000000    1.52080000000001    1.29959999999999
C         0.23590000000000   -1.68140000000000    2.96030000000001
C        -0.98006206086186   -2.38930573180707    3.27477262220130
C         1.23321341334311   -1.75396736848270    3.93347003194359
C        -2.35520237812283   -2.44686653633895    2.59672191187586
C        -1.08278851875864   -3.07920481639129    4.48505855296943
C         1.08738192142869   -2.41095853064434    5.14890435957042
H         2.18529440973199   -1.29191213758034    3.70861254155938
C        -2.87374465882786   -3.67857715992880    1.82391894296193
H        -3.09665981785235   -2.27105825272823    3.38544887780337
H        -2.47025748662008   -1.60448899365368    1.93565839787941
C        -0.07010081558577   -3.11905186394132    5.42415434241402
H        -2.00332834890364   -3.61880948305355    4.68419661611658
H         1.89711888501781   -2.41765863346351    5.86676394850299
C        -4.18882738492697   -3.47001324885079    1.09076583923369
H        -2.14289327284071   -4.00919292234817    1.07912768035454
H        -3.02298055308591   -4.52127207275754    2.50809267071526
H        -0.19946071264812   -3.69301743094279    6.33307411373780
N        -4.97308721882475   -2.43940863972199    1.41619538782836
C        -4.57303598759642   -4.33177949634587    0.05410629742114
C        -6.04871755355489   -2.17226857222422    0.67140129416154
C        -5.66313605033897   -4.02136491306927   -0.74696308792732
H        -3.97666763516682   -5.20279551232869   -0.18023563327828
C        -6.40312099611506   -2.88092768084088   -0.46296616554944
H        -6.62336520569211   -1.30672948951994    0.98291066655088
H        -5.90681742352157   -4.62269000464169   -1.61465272513448
H        -7.20926661415301   -2.55014965599383   -1.10502074609544
