107
 energy: -152.611604491547 gnorm: 0.000563733941 xtb: 6.4.0 (f63f532)
N        -0.96510000000000   -2.11529999999997   -0.24090000000002
C        -2.24700000000000   -1.69840000000001   -0.36219999999998
C        -3.14040000000000   -2.36819999999999   -1.21199999999995
C        -2.70220000000000   -3.47559999999998   -1.93050000000002
C        -1.37779999999997   -3.89879999999998   -1.78760000000002
C        -0.54290000000003   -3.18670000000001   -0.93510000000002
H         0.49809999999998   -3.45629999999999   -0.78940000000000
H        -0.99570000000002   -4.76030000000001   -2.32770000000002
H        -4.16500000000000   -2.02890000000001   -1.31830000000001
C        -2.62130000000000   -0.50949999999996    0.44100000000003
N        -1.62599999999999    0.07330000000005    1.16019999999998
C        -1.89679999999996    1.15240000000001    1.91690000000004
C        -3.17229999999994    1.70330000000001    1.99650000000006
C        -4.20510000000003    1.11740000000006    1.26269999999997
C        -3.92609999999999    0.00249999999999    0.47820000000005
H        -4.71959999999997   -0.46419999999997   -0.09520000000000
H        -3.34629999999999    2.57510000000001    2.62070000000002
H        -1.04450000000002    1.57420000000000    2.43690000000000
Ir        0.42150000000000   -0.81650000000000    0.91330000000000
H         0.87260000000000   -2.23030000000000    1.54050000000000
B         0.50670000000000    0.41560000000002   -0.81540000000000
O         0.19500000000000   -0.04699999999999   -2.09150000000001
C         0.00649999999996    1.10039999999998   -2.95430000000000
C         0.49020000000005    0.74739999999999   -4.35780000000002
H         1.51610000000003    0.37379999999999   -4.33700000000000
H         0.44730000000001    1.62240000000000   -5.01670000000001
H        -0.14740000000000   -0.03390000000000   -4.78429999999999
C        -1.50120000000002    1.39560000000001   -2.96669999999999
H        -1.75370000000001    2.21459999999999   -3.64850000000000
H        -2.03199999999999    0.49450000000001   -3.28929999999998
H        -1.85170000000001    1.65210000000000   -1.96220000000003
C         0.84230000000005    2.20670000000001   -2.22040000000000
O         0.75200000000000    1.78259999999998   -0.83690000000000
C         2.32930000000003    2.18620000000001   -2.59899999999999
H         2.74129999999999    1.18499999999999   -2.45750000000000
H         2.48870000000000    2.51300000000001   -3.63180000000002
H         2.87199999999998    2.86270000000000   -1.93200000000000
C         0.28439999999996    3.62289999999999   -2.33660000000000
H        -0.72649999999992    3.69040000000000   -1.92910000000000
H         0.92130000000001    4.31479999999999   -1.77610000000000
H         0.26430000000001    3.94810000000000   -3.38320000000001
B         1.56299999999999    0.60959999999999    1.84840000000000
O         2.92780000000000    0.55230000000000    2.15020000000001
C         3.36330000000002    1.88660000000000    2.50259999999996
C         4.53139999999989    1.78590000000003    3.47739999999989
H         4.27910000000000    1.16089999999997    4.33689999999997
H         5.39389999999996    1.33790000000002    2.97339999999998
H         4.82390000000000    2.77869999999997    3.83820000000002
C         3.79700000000001    2.56849999999999    1.19669999999991
H         4.20020000000000    3.57090000000000    1.37679999999999
H         4.56739999999999    1.95560000000000    0.72109999999997
H         2.95239999999999    2.63260000000000    0.50539999999999
C         2.05040000000001    2.50089999999998    3.09320000000003
O         1.03750000000003    1.81619999999999    2.31910000000000
C         1.89099999999999    4.00450000000000    2.88650000000003
H         1.87290000000000    4.25440000000000    1.82409999999998
H         0.94940000000002    4.34260000000000    3.33169999999999
H         2.71079999999994    4.55150000000001    3.36630000000001
C         1.82470000000007    2.13200000000000    4.56519999999996
H         1.92610000000000    1.05330000000001    4.71320000000000
H         2.52610000000002    2.65280000000001    5.22540000000001
H         0.80629999999997    2.41580000000001    4.84900000000001
B         2.27820000000002   -1.33089999999998    0.17409999999999
O         2.89459999999998   -2.57740000000001    0.38450000000000
C         4.26930000000004   -2.48200000000000   -0.07210000000004
C         5.10900000000001   -2.05380000000003    1.14010000000001
H         4.76350000000000   -1.08740000000000    1.51749999999999
H         4.98050000000000   -2.79470000000000    1.93590000000001
H         6.17419999999999   -1.99290000000001    0.89300000000001
C         4.71949999999998   -3.84660000000007   -0.58469999999996
H         4.75279999999999   -4.56129999999998    0.24420000000004
H         5.72330000000004   -3.78370000000000   -1.02009999999997
H         4.03500000000001   -4.23600000000001   -1.34170000000002
C         4.16439999999998   -1.36219999999996   -1.16300000000003
O         3.08520000000005   -0.55030000000000   -0.65400000000001
C         5.40720000000005   -0.48870000000001   -1.31549999999990
H         6.27320000000003   -1.09010000000000   -1.61529999999999
H         5.23300000000001    0.26930000000005   -2.08589999999996
H         5.64270000000000    0.02650000000000   -0.38239999999994
C         3.71799999999999   -1.89830000000003   -2.53109999999986
H         2.82530000000004   -2.52160000000002   -2.42740000000000
H         3.46089999999997   -1.05250000000000   -3.17550000000003
H         4.50570000000004   -2.48290000000004   -3.01789999999997
H        -3.38500000000001   -4.00129999999998   -2.59309999999998
H        -5.21399999999999    1.52080000000002    1.29960000000002
C         0.23589999999999   -1.68139999999999    2.96029999999999
C        -1.01686239592972   -2.14900238034041    3.35183683786025
C         1.20130904166365   -1.50678443699420    3.95113917658616
C        -1.32899220001165   -2.36585031299665    4.69207043051813
H        -1.77544297752704   -2.36880172220327    2.60870376731476
C         0.89510122837322   -1.68724294943254    5.29187291250014
H         2.20570512592722   -1.22592939741973    3.66372195349470
C        -0.37065606286130   -2.11058582227712    5.66921599560203
C        -2.68489764900457   -2.89057246770616    5.09683473295380
H         1.65017788708985   -1.51680731622432    6.04942580213626
H        -0.61161740804157   -2.25987250579483    6.71461727826952
N        -3.32915850633079   -2.01298195726857    6.05061180255239
H        -2.57703044838130   -3.87384296051668    5.56660395698633
H        -3.32340696542312   -2.99560197516479    4.21274222422697
C        -3.72699345584758   -0.73818256217798    5.78604249208909
C        -3.58801583325495   -2.28936384730779    7.35778082621258
C        -4.25552437404328   -0.19889674945123    6.93032030833385
H        -3.59467855411721   -0.31312329322204    4.80639213673294
C        -4.16786945875547   -1.18750354883472    7.93203282122548
H        -3.34786519172191   -3.24810633526246    7.78314299805037
H        -4.66242237519524    0.79134572750465    7.04174195703687
H        -4.49518232150264   -1.09698808437222    8.95341256234647
