107
 energy: -152.624199810174 gnorm: 0.000167012270 xtb: 6.4.0 (f63f532)
N        -0.89995882576599   -2.02930388985952   -0.39760410446729
C        -2.15105169867935   -1.56138731480628   -0.56840723696338
C        -2.99660169619250   -2.10935299923419   -1.54180310659952
C        -2.54597977223938   -3.13424664564041   -2.34413473519050
C        -1.24861089285780   -3.60566430232409   -2.15761945798281
C        -0.47661904360368   -3.02154509530176   -1.17551920873068
H         0.53370882856321   -3.35792494936050   -0.98973858953092
H        -0.85450045258232   -4.40600111754299   -2.76251783817425
H        -3.99727022729646   -1.73268663756722   -1.67588728306229
C        -2.55242695406245   -0.46164383617918    0.29991915811141
N        -1.61875282443402   -0.00050628759744    1.15990572127308
C        -1.94303963156409    0.99704975630901    1.97922561559528
C        -3.18432409952004    1.59984637225975    1.99300532955658
C        -4.15466995881278    1.14404020393812    1.10399090137101
C        -3.83127218806913    0.10785820930887    0.25514407864302
H        -4.57110106036022   -0.26037481540504   -0.43604104672685
H        -3.39453493933084    2.39904303296457    2.68528143973826
H        -1.15636670384732    1.32090126517036    2.64344097462237
Ir        0.42150000000016   -0.81649999999999    0.91329999999988
H         0.87260000000011   -2.23030000000004    1.54050000000020
B         0.37928163816006    0.62357348041201   -0.59861875445587
O        -0.31074830552093    0.35073373334691   -1.76832987130919
C        -0.42235084931936    1.53718236107449   -2.56005729957543
C        -0.24341451144237    1.19064844657184   -4.03592749992797
H         0.66537797582855    0.61825236337903   -4.18914792312829
H        -0.20879555901988    2.09896734235532   -4.63196762611978
H        -1.08550008742638    0.58590833863850   -4.36468120965492
C        -1.83684216931849    2.09308643992862   -2.33890222016349
H        -2.01215906494617    2.97566370668156   -2.94692290481816
H        -2.55896230230798    1.32555225542373   -2.61094878520403
H        -1.98313572914269    2.33548419273499   -1.28804099877318
C         0.68868749116924    2.45468426047339   -1.95367023441510
O         0.84627759955499    1.91798688729732   -0.63348906280058
C         2.03889191187585    2.28579188585868   -2.66106698639861
H         2.31780511526344    1.23478443929171   -2.64924443844085
H         2.00450030422138    2.66215583359735   -3.67947659374349
H         2.79417621298019    2.83549299585958   -2.10420935337150
C         0.33213816415246    3.93783710525925   -1.87815105740886
H        -0.51888537046367    4.10595149667800   -1.22540576212909
H         1.18041445799655    4.48793292841190   -1.47787586372856
H         0.10691529462644    4.31699505822645   -2.87181510169792
B         1.54197555632886    0.66708512979259    1.85799058499886
O         2.90709294879650    0.82924892796473    1.87142056791944
C         3.24623623334718    2.11192556460593    2.41750078879910
C         4.49176050638902    1.98977616606826    3.29407326077781
H         4.37018168158937    1.21228854640141    4.04084391676872
H         5.34266678949072    1.72918177187613    2.66987960348583
H         4.69578978856918    2.93756672835018    3.78495515761286
C         3.54620771246811    3.02772504720753    1.22471274404434
H         3.79413604120514    4.03499442467243    1.54599041571380
H         4.38813563276055    2.61488569322024    0.67336426427126
H         2.68453142881904    3.03667731602476    0.56224919203308
C         1.93953973202682    2.51798476806641    3.18144080915402
O         0.94649271441959    1.68040711144788    2.57598813952713
C         1.53062820487265    3.98132521790286    3.02164406236878
H         1.30854741783237    4.20448651288159    1.98348303252004
H         0.63510648362556    4.16684111937488    3.60976505617956
H         2.32342902161275    4.63425043297065    3.37660906503731
C         1.97973461026100    2.16482279769938    4.67383678802678
H         2.21883198634267    1.11269860439903    4.79995459649207
H         2.70342272729343    2.77824572308934    5.20174426877437
H         0.99394394362557    2.33575598821004    5.10017479687712
B         2.27820000000071   -1.33089999999945    0.17409999999931
O         3.14245137892651   -2.23818362170961    0.74901814315362
C         4.42036980470016   -2.19214428666243    0.10307092574793
C         5.34882540914849   -1.39996955081726    1.03010157640227
H         4.89483727119703   -0.43627707423854    1.24205477469355
H         5.43997995639447   -1.94064141183631    1.96880032423167
H         6.33605468367003   -1.27504022887362    0.59637855479459
C         4.95981796355971   -3.61394193359813   -0.05642925945037
H         5.11492622597511   -4.04039921761814    0.93106394278379
H         5.90793675193964   -3.59742273949459   -0.58650675370728
H         4.25763673110085   -4.24709071617335   -0.58829660568983
C         4.10588104661798   -1.44474712993949   -1.24233992656404
O         2.83067240928730   -0.83761139683982   -0.98494356757904
C         5.10730195236838   -0.35242992297456   -1.61544084343624
H         6.10449997623380   -0.77085975479215   -1.71975290042080
H         4.81198368776928    0.09224527437078   -2.56251151791808
H         5.11062363231097    0.42777997385227   -0.86221870157613
C         3.92851031199789   -2.39055693964374   -2.43783567653971
H         3.18296613351354   -3.14799995490883   -2.21259929146754
H         3.57343020504603   -1.81331202089505   -3.28820810727776
H         4.86836663808012   -2.86592779493598   -2.70161683639091
H        -3.18588438754189   -3.56057856588827   -3.10179481455499
H        -5.13836331372747    1.58802515978806    1.08179733090250
C         0.23590000000435   -1.68139999999316    2.96030000000140
C        -1.04752557283048   -2.05972142750722    3.34294455101070
C         1.19537038775037   -1.51242091947346    3.95564156353747
C        -1.39851254490944   -2.17237665971035    4.68200549184383
H        -1.80057527754399   -2.27458955696448    2.59612776834120
C         0.85577165954118   -1.62969663822363    5.29303077826480
H         2.21202422311155   -1.28919858103222    3.67037529112103
C        -0.44088546566231   -1.94541650233497    5.66140962718414
C        -2.81380794981959   -2.51969491693982    5.08185758086534
H         1.60599187347849   -1.48194661452858    6.05722092110480
H        -0.70943453903424   -2.02538747634646    6.70503982008387
N        -3.40336730828890   -1.46491014793689    5.87053300732644
H        -2.82382288676834   -3.43335105812971    5.68333945673077
H        -3.42089832128246   -2.68860721289722    4.18471804408008
C        -3.53314923352986   -0.17520675073780    5.46707540604556
C        -3.89214803929955   -1.57979559324294    7.13073327410121
C        -4.11544901122270    0.54210774862734    6.47768709633477
H        -3.19329866561538    0.13523460028501    4.49780992963872
C        -4.34600416604148   -0.35395816984744    7.53915007783931
H        -3.88720090151279   -2.52092423452148    7.64603066215900
H        -4.35187400774874    1.58881748373734    6.46398727075741
H        -4.79146640482804   -0.12280603293397    8.48766587046144
