98
 energy: -145.481303559845 gnorm: 0.000248709604 xtb: 6.4.1 (1a32961)
N        -0.93796831440933   -2.01872610865934   -0.37340746860188
C        -2.18548160071105   -1.54077738743016   -0.52649064543532
C        -3.05951408052848   -2.10120519640890   -1.46567473630470
C        -2.63858958439282   -3.15215511517125   -2.25228151222438
C        -1.34363793486569   -3.63310809356514   -2.08502685658787
C        -0.54149283599554   -3.03305784308963   -1.13584478055293
H         0.46949680050162   -3.37495064468785   -0.96597969518931
H        -0.97227264204325   -4.45322411360748   -2.67736560045201
H        -4.05901064076417   -1.71782184937623   -1.58536753723165
C        -2.55801354410060   -0.41430321478453    0.32569440123476
N        -1.60597894082742    0.05444807242546    1.15803094906449
C        -1.89793239507164    1.08269007908989    1.95038803538705
C        -3.13095487667319    1.70362658806805    1.96939130726474
C        -4.12301223154876    1.23412368725383    1.11455893306423
C        -3.82914948713582    0.17019750242872    0.28787552528910
H        -4.58627863514122   -0.20462099447943   -0.37999826095343
H        -3.31435282535530    2.52898402861190    2.63786269510482
H        -1.09211747373860    1.41816333839813    2.58525109281375
Ir        0.42150000000002   -0.81649999999994    0.91329999999977
H         0.87259999999990   -2.23030000000001    1.54050000000000
B         0.39863464891647    0.60648118928848   -0.60869334639093
O        -0.25400719121102    0.33327343720251   -1.79555466162976
C        -0.34375822680230    1.52409232017660   -2.58740033346378
C        -0.11215071564791    1.18398627391472   -4.05704100488175
H         0.80055108957789    0.61028788569456   -4.17832254492538
H        -0.05293570296227    2.09522556563705   -4.64642158440781
H        -0.94255143971079    0.58375809509468   -4.42123982157566
C        -1.76659814080557    2.07298090604422   -2.41014232035212
H        -1.92635833152502    2.95392106583829   -3.02449805962694
H        -2.47602952038161    1.30181246148001   -2.70365621552426
H        -1.94667736233018    2.31657521379438   -1.36480167931618
C         0.74306675159313    2.44360434890917   -1.94083816489009
O         0.85612855018499    1.90251841200292   -0.61615803842136
C         2.11762363148333    2.27910528471681   -2.60009551089927
H         2.39942409521499    1.22912794050700   -2.57756853517392
H         2.11767886279253    2.65506229623325   -3.61905166484002
H         2.85092952768482    2.83188649456512   -2.01777932618704
C         0.38020075797682    3.92530991612414   -1.87335313112393
H        -0.49168273535575    4.09058270424005   -1.24808864943064
H         1.21379230256865    4.47715174638341   -1.44572127424843
H         0.18589087483509    4.30552353760880   -2.87295421931499
B         1.58306572371468    0.63660199109803    1.86589079125565
O         2.94443296409664    0.80083549636190    1.83685411785792
C         3.30127205062514    2.07086894418881    2.40445023027049
C         4.57468973449746    1.92886136659409    3.23645172151466
H         4.47954623188138    1.13833627335457    3.97353569491863
H         5.40403884014364    1.68019348213233    2.57926843017808
H         4.79690223076850    2.86621131960564    3.73889835583314
C         3.56347845773643    3.01371722527047    1.22456302625003
H         3.81882273390443    4.01361378482813    1.56187248121707
H         4.39010620571331    2.61534766716087    0.64068638339189
H         2.68334662918908    3.03540334559160    0.58734833657954
C         2.01993007550760    2.45762727356995    3.22061356213614
O         1.00994674142562    1.61567464237202    2.64524956880142
C         1.58792332827583    3.91672708147323    3.08591237404751
H         1.32746702170806    4.14449460207713    2.05775015110817
H         0.71113208470080    4.08595596088942    3.70626646560070
H         2.38393432404468    4.57668766464887    3.41922261062083
C         2.11790675033801    2.10008185781288    4.70893698454373
H         2.39688730939179    1.05741976564979    4.83529443437661
H         2.84053186738621    2.73239296394602    5.21521475925317
H         1.14268477316418    2.24394376104821    5.16862958491672
B         2.27820000000013   -1.33089999999971    0.17409999999982
O         3.11069270476404   -2.26924504927838    0.74365646333081
C         4.39575514404562   -2.25189179018793    0.10696991910950
C         5.34476620060116   -1.52204716315604    1.06332382241529
H         4.92874256272446   -0.54649651769451    1.29735854706033
H         5.40693223145266   -2.09090627032143    1.98780454921302
H         6.34011985980469   -1.42474918776024    0.64173338552815
C         4.88147786293185   -3.68838584567978   -0.08811612697031
H         5.01082998634896   -4.14837870020985    0.88805757390388
H         5.83472989039982   -3.69399192678262   -0.60868684578125
H         4.16099435148646   -4.27866272208408   -0.64429859063362
C         4.11914198090326   -1.45691350803528   -1.22009399054902
O         2.85425981043796   -0.82540046340522   -0.96329474591147
C         5.15148866745102   -0.37842810474664   -1.54499907302890
H         6.13880086380291   -0.81852015927347   -1.65223151220047
H         4.87859863720997    0.10447569644221   -2.47985059995122
H         5.16565285011515    0.37594282576799   -0.76615932113373
C         3.93450652965667   -2.35955551199768   -2.44693188000739
H         3.16207960470828   -3.09988450019997   -2.25894586010141
H         3.61285551880785   -1.74533072301818   -3.28441015620896
H         4.86389492490682   -2.85530135355972   -2.70971211449200
H        -3.30158927210136   -3.58992362359988   -2.98274651615836
H        -5.10122903766208    1.68970437611585    1.09662646803300
C         0.23590000000052   -1.68140000000033    2.96029999999927
C        -1.04860064868983   -2.05693061158467    3.34457968737797
C         1.19942164526767   -1.53487785364484    3.95698092204789
C        -1.39165797418810   -2.17536621217197    4.69595047244840
H        -1.81069440327566   -2.26506408893167    2.60747326687244
C         0.86357868084589   -1.66513455098939    5.30625670947923
H         2.22035649444499   -1.32239530791186    3.67899251288943
C        -2.71836115411638   -2.51550020256701    5.03946096750969
C        -0.44239209181000   -1.96812374324045    5.69273240544917
C         1.85772561319233   -1.49710097052082    6.29623988135454
N        -3.80411955527831   -2.78749417216423    5.29624610821520
H        -0.70518387041997   -2.05718544809659    6.73600381193122
N         2.66391303054083   -1.36081174406034    7.10209156576482
