101
 energy: -143.040792120507 gnorm: 0.000395141146 xtb: 6.4.1 (1a32961)
N        -0.91869328352064   -1.96222771293320   -0.48215235992676
C        -2.11138470231498   -1.38633637232141   -0.73203048982254
C        -2.91850189133008   -1.83571530722507   -1.78409530097674
C        -2.49287683277295   -2.87654602901489   -2.58019836483274
C        -1.25678112570758   -3.45891950037857   -2.31221984647926
C        -0.51688534176688   -2.96310152603942   -1.25914139401895
H         0.44480692075255   -3.38811846423550   -1.00758051794642
H        -0.88439209399975   -4.27640749020363   -2.90782609727657
H        -3.87098462820162   -1.37229118536686   -1.98252280997913
C        -2.49273257364147   -0.28574850365631    0.14426310169250
N        -1.59584192303271    0.07023216430064    1.09037733735424
C        -1.90913248129095    1.05774603851550    1.92621746029936
C        -3.09744391879004    1.75675695647145    1.87062258591265
C        -4.02321644716927    1.41619129754513    0.88753895737106
C        -3.71395382977959    0.38776053945783    0.02317593253035
H        -4.42219599325232    0.10649982478234   -0.73835590623688
H        -3.30054521147896    2.54298597515292    2.57965106872133
H        -1.15946447366986    1.29289142322605    2.66603996993344
Ir        0.42150000000008   -0.81649999999987    0.91329999999979
H         0.87259999999999   -2.23029999999996    1.54050000000008
B         0.42700745766411    0.62446003870668   -0.60870378756567
O        -0.16819023295652    0.30589641917229   -1.81536359220383
C        -0.23009709441876    1.46077721031259   -2.65763929765255
C         0.08321695961866    1.05807814524602   -4.09640551997096
H         1.01163897672212    0.49894777467503   -4.14331012457801
H         0.15369029911643    1.94052336234730   -4.72703316514089
H        -0.71624386258709    0.42181390177488   -4.46886300540478
C        -1.66657922467008    1.99835161148454   -2.58603951287805
H        -1.79871459420884    2.85096550990190   -3.24550203557472
H        -2.34922323591337    1.20642374153696   -2.88794529134714
H        -1.91054818436473    2.28293571891370   -1.56440592787296
C         0.80973371143119    2.41986001283343   -1.99254912305574
O         0.86364183980574    1.92971110202895   -0.64445831588193
C         2.21516861655223    2.25111521500770   -2.58188138644329
H         2.51208935420236    1.20897781004153   -2.49319893743142
H         2.25201289017239    2.57488282616281   -3.61806056000332
H         2.91385101711190    2.84723421471931   -1.99997732292178
C         0.42446422900739    3.89769201095556   -2.00009682249943
H        -0.48156773833339    4.07381590532196   -1.42837925483566
H         1.22687137222698    4.47833517613053   -1.55104577686881
H         0.27873826578971    4.23681961063825   -3.02257992749085
B         1.54224932263623    0.70813509796549    1.79309520581122
O         2.89493669914798    0.93203207637253    1.68374520682287
C         3.24864337994391    2.19057478794596    2.27411381812381
C         4.52961706847825    2.02545483160871    3.09237360678560
H         4.42152994669048    1.24392199334794    3.83654547510323
H         5.34105294650047    1.74800298486975    2.42422760407999
H         4.78453126981572    2.96206343794285    3.58068703261417
C         3.51143617045363    3.15836420538788    1.11468594854903
H         3.76082272016943    4.15288778416227    1.47198038283429
H         4.34248771115771    2.77411470684065    0.52737175504365
H         2.63420765588924    3.19009911083544    0.47492888513977
C         1.97268850827800    2.55646189397551    3.11251770685051
O         0.97117498452360    1.67728924936584    2.58070998322903
C         1.49827002179510    4.00090438056744    2.95384481148738
H         1.23121661167671    4.20551203229331    1.92236519134136
H         0.61587260897158    4.15341818194730    3.57047602956225
H         2.27375007706539    4.68981671983515    3.27693500630715
C         2.10956497236884    2.23363153433767    4.60568385309963
H         2.33816298273366    1.18092498763352    4.74568015030531
H         2.87572070217188    2.84692731643523    5.06947285453007
H         1.15823023814655    2.43174105432201    5.09385105331845
B         2.27819999999918   -1.33090000000067    0.17409999999944
O         3.14563609209967   -2.26267776591449    0.70369082574894
C         4.38596821195871   -2.24787464534194   -0.01359662979664
C         5.36072372390859   -1.40061394167851    0.81097384654096
H         4.93254895791987   -0.41267310878872    0.95623049165606
H         5.47809801329644   -1.86232794480530    1.78781926914257
H         6.33189785511736   -1.33091804724692    0.33091841773800
C         4.92391748990540   -3.67251250236111   -0.13753647411124
H         5.17647786618330   -4.04032259232017    0.85337893384895
H         5.81796700019353   -3.68179635207359   -0.75470716647161
H         4.18193458743642   -4.33876833405614   -0.56486164286423
C         3.98673278532868   -1.56658060444786   -1.36641074842784
O         2.78283324386646   -0.86308710532343   -1.02047882873743
C         5.01686287972556   -0.58306355250352   -1.91717379170451
H         5.97317875105725   -1.08026898097633   -2.05451456262109
H         4.67676806161430   -0.20797074895114   -2.87928750224506
H         5.13435065991771    0.26051021648880   -1.24574865889595
C         3.62083586961828   -2.57868186362531   -2.46068317997272
H         2.87705692187033   -3.27804115583710   -2.08884794434766
H         3.18621835771360   -2.04212771616826   -3.30074165671727
H         4.49844643944383   -3.11969907211244   -2.80107845058716
H        -3.10676381676932   -3.23169950969637   -3.39421327356267
H        -4.96322036724198    1.94074490520456    0.80474463730037
C         0.23590000000132   -1.68139999999888    2.96030000000281
C        -1.05671148243605   -1.99183061200703    3.39256217643647
C         1.20302902967363   -1.51282905046976    3.97340150518963
C        -1.37515879682939   -1.81459887175551    4.74251013726739
C        -2.12023462436534   -2.58648326557053    2.51600280119026
N         0.88285003462130   -1.34619335731606    5.24994577520977
C         2.67413890959953   -1.61639790803345    3.71787663295507
C        -0.38827643701544   -1.41796151542476    5.61652525394559
H        -2.37983890011288   -2.00702708000357    5.09165799128119
H        -2.52719702076767   -3.47409050956386    3.00126948051340
H        -1.71771391895310   -2.86990785761118    1.54971363920797
H        -2.94269208972378   -1.88762902162389    2.36745576638477
H         3.01170484317873   -0.84911042498514    3.03155726160086
H         2.89148827311527   -2.57302886474987    3.24954332989055
H         3.20232633834391   -1.54297618267698    4.66520234040462
H        -0.59055363147241   -1.21682935504384    6.66119315252301
