15
 energy: -19.059165589685 gnorm: 0.000138723374 xtb: 6.4.1 (1a32961)
C         0.98437942077576   -0.01080244276565   -0.00456401565143
C         2.48397481257680   -0.00371928602057   -0.01091115065382
C         0.26890705504966   -1.20092522412933   -0.00217838282695
C        -1.11609397367685   -1.19553115721745    0.00307084319508
C        -1.80666211288625    0.00394078170413    0.00614250259532
C        -1.10356061719279    1.19796381392206    0.00379911644265
C         0.27936280273964    1.18868884860552   -0.00125373380456
H         2.87824312638843   -1.01659235014595    0.00155863951387
H         2.86355277561077    0.52970698255418    0.85969612052994
H         2.85628891994296    0.50434663642394   -0.89983544062011
H         0.79967939759805   -2.14288060356495   -0.00468380807525
H        -1.65690961225356   -2.13120997078674    0.00528084554932
H        -2.88688625346255    0.00947856994284    0.01114646108375
H        -1.63578749858807    2.13857786819821    0.00664182288720
H         0.82362175737800    2.12287753327976   -0.00300982016501
